Geom Title=Geometry2D
Program Version=6.70
Viewing Rectangle= 4999994.9299224 , 5000105.13775405 , 2000008.61192438 , 1999991.44948635 

Storage Area=Perimeter 1     ,5000050.0837726,2000000.0307054
Storage Area Surface Line= 5 
5000000.297721181999992.37541228                
5000000.297721182000007.68599845                
5000099.743623782000007.83181356                
5000099.743623781999992.22959717                
5000000.297721181999992.37541228                
Storage Area Type= 1 
Storage Area Area=
Storage Area Min Elev=
Storage Area Is2D=-1
Storage Area Point Generation Data=,,0.5,0.5
Storage Area 2D Points= 5739 
5000014.547721182000007.581813565000015.047721182000007.58181356
5000015.547721182000007.581813565000016.047721182000007.58181356
5000016.547721182000007.581813565000017.047721182000007.58181356
5000017.547721182000007.581813565000018.047721182000007.58181356
5000018.547721182000007.581813565000019.047721182000007.58181356
5000019.547721182000007.581813565000020.047721182000007.58181356
5000020.547721182000007.581813565000021.047721182000007.58181356
5000021.547721182000007.581813565000022.047721182000007.58181356
5000022.547721182000007.581813565000023.047721182000007.58181356
5000023.547721182000007.581813565000024.047721182000007.58181356
5000024.547721182000007.581813565000025.047721182000007.58181356
5000025.547721182000007.581813565000026.047721182000007.58181356
5000026.547721182000007.581813565000027.047721182000007.58181356
5000027.547721182000007.581813565000028.047721182000007.58181356
5000028.547721182000007.581813565000029.047721182000007.58181356
5000029.547721182000007.581813565000030.047721182000007.58181356
5000030.547721182000007.581813565000031.047721182000007.58181356
5000031.547721182000007.581813565000032.047721182000007.58181356
5000032.547721182000007.581813565000033.047721182000007.58181356
5000033.547721182000007.581813565000034.047721182000007.58181356
5000034.547721182000007.581813565000035.047721182000007.58181356
5000035.547721182000007.581813565000036.047721182000007.58181356
5000036.547721182000007.581813565000037.047721182000007.58181356
5000037.547721182000007.581813565000038.047721182000007.58181356
5000038.547721182000007.581813565000039.047721182000007.58181356
5000039.547721182000007.581813565000040.047721182000007.58181356
5000040.547721182000007.581813565000041.047721182000007.58181356
5000041.547721182000007.581813565000042.047721182000007.58181356
5000042.547721182000007.581813565000043.047721182000007.58181356
5000043.547721182000007.581813565000044.047721182000007.58181356
5000044.547721182000007.581813565000045.047721182000007.58181356
5000045.547721182000007.581813565000046.047721182000007.58181356
5000046.547721182000007.581813565000047.047721182000007.58181356
5000047.547721182000007.581813565000048.047721182000007.58181356
5000048.547721182000007.581813565000049.047721182000007.58181356
5000049.547721182000007.581813565000050.047721182000007.58181356
5000050.547721182000007.581813565000051.047721182000007.58181356
5000051.547721182000007.581813565000052.047721182000007.58181356
5000052.547721182000007.581813565000053.047721182000007.58181356
5000053.547721182000007.581813565000054.047721182000007.58181356
5000054.547721182000007.581813565000055.047721182000007.58181356
5000055.547721182000007.581813565000056.047721182000007.58181356
5000056.547721182000007.581813565000057.047721182000007.58181356
5000057.547721182000007.581813565000058.047721182000007.58181356
5000058.547721182000007.581813565000059.047721182000007.58181356
5000059.547721182000007.581813565000060.047721182000007.58181356
5000060.547721182000007.581813565000061.047721182000007.58181356
5000061.547721182000007.581813565000062.047721182000007.58181356
5000062.547721182000007.581813565000063.047721182000007.58181356
5000063.547721182000007.581813565000064.047721182000007.58181356
5000064.547721182000007.581813565000065.047721182000007.58181356
5000065.547721182000007.581813565000066.047721182000007.58181356
5000066.547721182000007.581813565000067.047721182000007.58181356
5000067.547721182000007.581813565000068.047721182000007.58181356
5000068.547721182000007.581813565000069.047721182000007.58181356
5000069.547721182000007.581813565000070.047721182000007.58181356
5000070.547721182000007.581813565000071.047721182000007.58181356
5000071.547721182000007.581813565000072.047721182000007.58181356
5000072.547721182000007.581813565000073.047721182000007.58181356
5000073.547721182000007.581813565000074.047721182000007.58181356
5000074.547721182000007.581813565000075.047721182000007.58181356
5000075.547721182000007.581813565000076.047721182000007.58181356
5000076.547721182000007.581813565000077.047721182000007.58181356
5000077.547721182000007.581813565000078.047721182000007.58181356
5000078.547721182000007.581813565000079.047721182000007.58181356
5000079.547721182000007.581813565000080.047721182000007.58181356
5000080.547721182000007.581813565000081.047721182000007.58181356
5000081.547721182000007.581813565000082.047721182000007.58181356
5000082.547721182000007.581813565000083.047721182000007.58181356
5000083.547721182000007.581813565000084.047721182000007.58181356
5000084.547721182000007.581813565000085.047721182000007.58181356
5000085.547721182000007.581813565000086.047721182000007.58181356
5000086.547721182000007.581813565000087.047721182000007.58181356
5000087.547721182000007.581813565000088.047721182000007.58181356
5000088.547721182000007.581813565000089.047721182000007.58181356
5000089.547721182000007.581813565000090.047721182000007.58181356
5000090.547721182000007.581813565000091.047721182000007.58181356
5000091.547721182000007.581813565000092.047721182000007.58181356
5000092.547721182000007.581813565000093.047721182000007.58181356
5000093.547721182000007.581813565000094.047721182000007.58181356
5000094.547721182000007.581813565000095.047721182000007.58181356
5000095.547721182000007.581813565000096.047721182000007.58181356
5000096.547721182000007.581813565000097.047721182000007.58181356
5000097.547721182000007.581813565000098.047721182000007.58181356
5000098.547721182000007.581813565000099.047721182000007.58181356
5000099.547721182000007.581813565000000.547721182000007.08181356
5000001.047721182000007.081813565000001.547721182000007.08181356
5000002.047721182000007.081813565000002.547721182000007.08181356
5000003.047721182000007.081813565000003.547721182000007.08181356
5000004.047721182000007.081813565000004.547721182000007.08181356
5000005.047721182000007.081813565000005.547721182000007.08181356
5000006.047721182000007.081813565000006.547721182000007.08181356
5000007.047721182000007.081813565000007.547721182000007.08181356
5000008.047721182000007.081813565000008.547721182000007.08181356
5000009.047721182000007.081813565000009.547721182000007.08181356
5000010.047721182000007.081813565000010.547721182000007.08181356
5000011.047721182000007.081813565000011.547721182000007.08181356
5000012.047721182000007.081813565000012.547721182000007.08181356
5000013.047721182000007.081813565000013.547721182000007.08181356
5000014.047721182000007.081813565000014.547721182000007.08181356
5000015.047721182000007.081813565000015.547721182000007.08181356
5000016.047721182000007.081813565000016.547721182000007.08181356
5000017.047721182000007.081813565000017.547721182000007.08181356
5000018.047721182000007.081813565000018.547721182000007.08181356
5000019.047721182000007.081813565000019.547721182000007.08181356
5000020.047721182000007.081813565000020.547721182000007.08181356
5000021.047721182000007.081813565000021.547721182000007.08181356
5000022.047721182000007.081813565000022.547721182000007.08181356
5000023.047721182000007.081813565000023.547721182000007.08181356
5000024.047721182000007.081813565000024.547721182000007.08181356
5000025.047721182000007.081813565000025.547721182000007.08181356
5000026.047721182000007.081813565000026.547721182000007.08181356
5000027.047721182000007.081813565000027.547721182000007.08181356
5000028.047721182000007.081813565000028.547721182000007.08181356
5000029.047721182000007.081813565000029.547721182000007.08181356
5000030.047721182000007.081813565000030.547721182000007.08181356
5000031.047721182000007.081813565000031.547721182000007.08181356
5000032.047721182000007.081813565000032.547721182000007.08181356
5000033.047721182000007.081813565000033.547721182000007.08181356
5000034.047721182000007.081813565000034.547721182000007.08181356
5000035.047721182000007.081813565000035.547721182000007.08181356
5000036.047721182000007.081813565000036.547721182000007.08181356
5000037.047721182000007.081813565000037.547721182000007.08181356
5000038.047721182000007.081813565000038.547721182000007.08181356
5000039.047721182000007.081813565000039.547721182000007.08181356
5000040.047721182000007.081813565000040.547721182000007.08181356
5000041.047721182000007.081813565000041.547721182000007.08181356
5000042.047721182000007.081813565000042.547721182000007.08181356
5000043.047721182000007.081813565000043.547721182000007.08181356
5000044.047721182000007.081813565000044.547721182000007.08181356
5000045.047721182000007.081813565000045.547721182000007.08181356
5000046.047721182000007.081813565000046.547721182000007.08181356
5000047.047721182000007.081813565000047.547721182000007.08181356
5000048.047721182000007.081813565000048.547721182000007.08181356
5000049.047721182000007.081813565000049.547721182000007.08181356
5000050.047721182000007.081813565000050.547721182000007.08181356
5000051.047721182000007.081813565000051.547721182000007.08181356
5000052.047721182000007.081813565000052.547721182000007.08181356
5000053.047721182000007.081813565000053.547721182000007.08181356
5000054.047721182000007.081813565000054.547721182000007.08181356
5000055.047721182000007.081813565000055.547721182000007.08181356
5000056.047721182000007.081813565000056.547721182000007.08181356
5000057.047721182000007.081813565000057.547721182000007.08181356
5000058.047721182000007.081813565000058.547721182000007.08181356
5000059.047721182000007.081813565000059.547721182000007.08181356
5000060.047721182000007.081813565000060.547721182000007.08181356
5000061.047721182000007.081813565000061.547721182000007.08181356
5000062.047721182000007.081813565000062.547721182000007.08181356
5000063.047721182000007.081813565000063.547721182000007.08181356
5000064.047721182000007.081813565000064.547721182000007.08181356
5000065.047721182000007.081813565000065.547721182000007.08181356
5000066.047721182000007.081813565000066.547721182000007.08181356
5000067.047721182000007.081813565000067.547721182000007.08181356
5000068.047721182000007.081813565000068.547721182000007.08181356
5000069.047721182000007.081813565000069.547721182000007.08181356
5000070.047721182000007.081813565000070.547721182000007.08181356
5000071.047721182000007.081813565000071.547721182000007.08181356
5000072.047721182000007.081813565000072.547721182000007.08181356
5000073.047721182000007.081813565000073.547721182000007.08181356
5000074.047721182000007.081813565000074.547721182000007.08181356
5000075.047721182000007.081813565000075.547721182000007.08181356
5000076.047721182000007.081813565000076.547721182000007.08181356
5000077.047721182000007.081813565000077.547721182000007.08181356
5000078.047721182000007.081813565000078.547721182000007.08181356
5000079.047721182000007.081813565000079.547721182000007.08181356
5000080.047721182000007.081813565000080.547721182000007.08181356
5000081.047721182000007.081813565000081.547721182000007.08181356
5000082.047721182000007.081813565000082.547721182000007.08181356
5000083.047721182000007.081813565000083.547721182000007.08181356
5000084.047721182000007.081813565000084.547721182000007.08181356
5000085.047721182000007.081813565000085.547721182000007.08181356
5000086.047721182000007.081813565000086.547721182000007.08181356
5000087.047721182000007.081813565000087.547721182000007.08181356
5000088.047721182000007.081813565000088.547721182000007.08181356
5000089.047721182000007.081813565000089.547721182000007.08181356
5000090.047721182000007.081813565000090.547721182000007.08181356
5000091.047721182000007.081813565000091.547721182000007.08181356
5000092.047721182000007.081813565000092.547721182000007.08181356
5000093.047721182000007.081813565000093.547721182000007.08181356
5000094.047721182000007.081813565000094.547721182000007.08181356
5000095.047721182000007.081813565000095.547721182000007.08181356
5000096.047721182000007.081813565000096.547721182000007.08181356
5000097.047721182000007.081813565000097.547721182000007.08181356
5000098.047721182000007.081813565000098.547721182000007.08181356
5000099.047721182000007.081813565000099.547721182000007.08181356
5000000.547721182000006.581813565000001.047721182000006.58181356
5000001.547721182000006.581813565000002.047721182000006.58181356
5000002.547721182000006.581813565000003.047721182000006.58181356
5000003.547721182000006.581813565000004.047721182000006.58181356
5000004.547721182000006.581813565000005.047721182000006.58181356
5000005.547721182000006.581813565000006.047721182000006.58181356
5000006.547721182000006.581813565000007.047721182000006.58181356
5000007.547721182000006.581813565000008.047721182000006.58181356
5000008.547721182000006.581813565000009.047721182000006.58181356
5000009.547721182000006.581813565000010.047721182000006.58181356
5000010.547721182000006.581813565000011.047721182000006.58181356
5000011.547721182000006.581813565000012.047721182000006.58181356
5000012.547721182000006.581813565000013.047721182000006.58181356
5000013.547721182000006.581813565000014.047721182000006.58181356
5000014.547721182000006.581813565000015.047721182000006.58181356
5000015.547721182000006.581813565000016.047721182000006.58181356
5000016.547721182000006.581813565000017.047721182000006.58181356
5000017.547721182000006.581813565000018.047721182000006.58181356
5000018.547721182000006.581813565000019.047721182000006.58181356
5000019.547721182000006.581813565000020.047721182000006.58181356
5000020.547721182000006.581813565000021.047721182000006.58181356
5000021.547721182000006.581813565000022.047721182000006.58181356
5000022.547721182000006.581813565000023.047721182000006.58181356
5000023.547721182000006.581813565000024.047721182000006.58181356
5000024.547721182000006.581813565000025.047721182000006.58181356
5000025.547721182000006.581813565000026.047721182000006.58181356
5000026.547721182000006.581813565000027.047721182000006.58181356
5000027.547721182000006.581813565000028.047721182000006.58181356
5000028.547721182000006.581813565000029.047721182000006.58181356
5000029.547721182000006.581813565000030.047721182000006.58181356
5000030.547721182000006.581813565000031.047721182000006.58181356
5000031.547721182000006.581813565000032.047721182000006.58181356
5000032.547721182000006.581813565000033.047721182000006.58181356
5000033.547721182000006.581813565000034.047721182000006.58181356
5000034.547721182000006.581813565000035.047721182000006.58181356
5000035.547721182000006.581813565000036.047721182000006.58181356
5000036.547721182000006.581813565000037.047721182000006.58181356
5000037.547721182000006.581813565000038.047721182000006.58181356
5000038.547721182000006.581813565000039.047721182000006.58181356
5000039.547721182000006.581813565000040.047721182000006.58181356
5000040.547721182000006.581813565000041.047721182000006.58181356
5000041.547721182000006.581813565000042.047721182000006.58181356
5000042.547721182000006.581813565000043.047721182000006.58181356
5000043.547721182000006.581813565000044.047721182000006.58181356
5000044.547721182000006.581813565000045.047721182000006.58181356
5000045.547721182000006.581813565000046.047721182000006.58181356
5000046.547721182000006.581813565000047.047721182000006.58181356
5000047.547721182000006.581813565000048.047721182000006.58181356
5000048.547721182000006.581813565000049.047721182000006.58181356
5000049.547721182000006.581813565000050.047721182000006.58181356
5000050.547721182000006.581813565000051.047721182000006.58181356
5000051.547721182000006.581813565000052.047721182000006.58181356
5000052.547721182000006.581813565000053.047721182000006.58181356
5000053.547721182000006.581813565000054.047721182000006.58181356
5000054.547721182000006.581813565000055.047721182000006.58181356
5000055.547721182000006.581813565000056.047721182000006.58181356
5000056.547721182000006.581813565000057.047721182000006.58181356
5000057.547721182000006.581813565000058.047721182000006.58181356
5000058.547721182000006.581813565000059.047721182000006.58181356
5000059.547721182000006.581813565000060.047721182000006.58181356
5000060.547721182000006.581813565000061.047721182000006.58181356
5000061.547721182000006.581813565000062.047721182000006.58181356
5000062.547721182000006.581813565000063.047721182000006.58181356
5000063.547721182000006.581813565000064.047721182000006.58181356
5000064.547721182000006.581813565000065.047721182000006.58181356
5000065.547721182000006.581813565000066.047721182000006.58181356
5000066.547721182000006.581813565000067.047721182000006.58181356
5000067.547721182000006.581813565000068.047721182000006.58181356
5000068.547721182000006.581813565000069.047721182000006.58181356
5000069.547721182000006.581813565000070.047721182000006.58181356
5000070.547721182000006.581813565000071.047721182000006.58181356
5000071.547721182000006.581813565000072.047721182000006.58181356
5000072.547721182000006.581813565000073.047721182000006.58181356
5000073.547721182000006.581813565000074.047721182000006.58181356
5000074.547721182000006.581813565000075.047721182000006.58181356
5000075.547721182000006.581813565000076.047721182000006.58181356
5000076.547721182000006.581813565000077.047721182000006.58181356
5000077.547721182000006.581813565000078.047721182000006.58181356
5000078.547721182000006.581813565000079.047721182000006.58181356
5000079.547721182000006.581813565000080.047721182000006.58181356
5000080.547721182000006.581813565000081.047721182000006.58181356
5000081.547721182000006.581813565000082.047721182000006.58181356
5000082.547721182000006.581813565000083.047721182000006.58181356
5000083.547721182000006.581813565000084.047721182000006.58181356
5000084.547721182000006.581813565000085.047721182000006.58181356
5000085.547721182000006.581813565000086.047721182000006.58181356
5000086.547721182000006.581813565000087.047721182000006.58181356
5000087.547721182000006.581813565000088.047721182000006.58181356
5000088.547721182000006.581813565000089.047721182000006.58181356
5000089.547721182000006.581813565000090.047721182000006.58181356
5000090.547721182000006.581813565000091.047721182000006.58181356
5000091.547721182000006.581813565000092.047721182000006.58181356
5000092.547721182000006.581813565000093.047721182000006.58181356
5000093.547721182000006.581813565000094.047721182000006.58181356
5000094.547721182000006.581813565000095.047721182000006.58181356
5000095.547721182000006.581813565000096.047721182000006.58181356
5000096.547721182000006.581813565000097.047721182000006.58181356
5000097.547721182000006.581813565000098.047721182000006.58181356
5000098.547721182000006.581813565000099.047721182000006.58181356
5000099.547721182000006.581813565000000.547721182000004.58181356
5000001.047721182000004.581813565000001.547721182000004.58181356
5000002.047721182000004.581813565000002.547721182000004.58181356
5000003.047721182000004.581813565000003.547721182000004.58181356
5000004.047721182000004.581813565000004.547721182000004.58181356
5000005.047721182000004.581813565000005.547721182000004.58181356
5000006.047721182000004.581813565000006.547721182000004.58181356
5000007.047721182000004.581813565000007.547721182000004.58181356
5000008.047721182000004.581813565000008.547721182000004.58181356
5000009.047721182000004.581813565000009.547721182000004.58181356
5000010.047721182000004.581813565000010.547721182000004.58181356
5000011.047721182000004.581813565000011.547721182000004.58181356
5000012.047721182000004.581813565000012.547721182000004.58181356
5000013.047721182000004.581813565000013.547721182000004.58181356
5000014.047721182000004.581813565000014.547721182000004.58181356
5000015.047721182000004.581813565000015.547721182000004.58181356
5000016.047721182000004.581813565000016.547721182000004.58181356
5000017.047721182000004.581813565000017.547721182000004.58181356
5000018.047721182000004.581813565000018.547721182000004.58181356
5000019.047721182000004.581813565000019.547721182000004.58181356
5000020.047721182000004.581813565000020.547721182000004.58181356
5000021.047721182000004.581813565000021.547721182000004.58181356
5000022.047721182000004.581813565000022.547721182000004.58181356
5000023.047721182000004.581813565000023.547721182000004.58181356
5000024.047721182000004.581813565000024.547721182000004.58181356
5000025.047721182000004.581813565000025.547721182000004.58181356
5000026.047721182000004.581813565000026.547721182000004.58181356
5000027.047721182000004.581813565000027.547721182000004.58181356
5000028.047721182000004.581813565000028.547721182000004.58181356
5000029.047721182000004.581813565000029.547721182000004.58181356
5000030.047721182000004.581813565000030.547721182000004.58181356
5000031.047721182000004.581813565000031.547721182000004.58181356
5000032.047721182000004.581813565000032.547721182000004.58181356
5000033.047721182000004.581813565000033.547721182000004.58181356
5000034.047721182000004.581813565000034.547721182000004.58181356
5000035.047721182000004.581813565000035.547721182000004.58181356
5000036.047721182000004.581813565000036.547721182000004.58181356
5000037.047721182000004.581813565000037.547721182000004.58181356
5000038.047721182000004.581813565000038.547721182000004.58181356
5000039.047721182000004.581813565000039.547721182000004.58181356
5000040.047721182000004.581813565000040.547721182000004.58181356
5000041.047721182000004.581813565000041.547721182000004.58181356
5000042.047721182000004.581813565000042.547721182000004.58181356
5000043.047721182000004.581813565000043.547721182000004.58181356
5000044.047721182000004.581813565000044.547721182000004.58181356
5000045.047721182000004.581813565000045.547721182000004.58181356
5000046.047721182000004.581813565000046.547721182000004.58181356
5000047.047721182000004.581813565000047.547721182000004.58181356
5000048.047721182000004.581813565000048.547721182000004.58181356
5000049.047721182000004.581813565000049.547721182000004.58181356
5000050.047721182000004.581813565000050.547721182000004.58181356
5000051.047721182000004.581813565000051.547721182000004.58181356
5000052.047721182000004.581813565000052.547721182000004.58181356
5000053.047721182000004.581813565000053.547721182000004.58181356
5000054.047721182000004.581813565000054.547721182000004.58181356
5000055.047721182000004.581813565000055.547721182000004.58181356
5000056.047721182000004.581813565000056.547721182000004.58181356
5000057.047721182000004.581813565000057.547721182000004.58181356
5000058.047721182000004.581813565000058.547721182000004.58181356
5000059.047721182000004.581813565000059.547721182000004.58181356
5000060.047721182000004.581813565000060.547721182000004.58181356
5000061.047721182000004.581813565000061.547721182000004.58181356
5000062.047721182000004.581813565000062.547721182000004.58181356
5000063.047721182000004.581813565000063.547721182000004.58181356
5000064.047721182000004.581813565000064.547721182000004.58181356
5000065.047721182000004.581813565000065.547721182000004.58181356
5000066.047721182000004.581813565000066.547721182000004.58181356
5000067.047721182000004.581813565000067.547721182000004.58181356
5000068.047721182000004.581813565000068.547721182000004.58181356
5000069.047721182000004.581813565000069.547721182000004.58181356
5000070.047721182000004.581813565000070.547721182000004.58181356
5000071.047721182000004.581813565000071.547721182000004.58181356
5000072.047721182000004.581813565000072.547721182000004.58181356
5000073.047721182000004.581813565000073.547721182000004.58181356
5000074.047721182000004.581813565000074.547721182000004.58181356
5000075.047721182000004.581813565000075.547721182000004.58181356
5000076.047721182000004.581813565000076.547721182000004.58181356
5000077.047721182000004.581813565000077.547721182000004.58181356
5000078.047721182000004.581813565000078.547721182000004.58181356
5000079.047721182000004.581813565000079.547721182000004.58181356
5000080.047721182000004.581813565000080.547721182000004.58181356
5000081.047721182000004.581813565000081.547721182000004.58181356
5000082.047721182000004.581813565000082.547721182000004.58181356
5000083.047721182000004.581813565000083.547721182000004.58181356
5000084.047721182000004.581813565000084.547721182000004.58181356
5000085.047721182000004.581813565000085.547721182000004.58181356
5000086.047721182000004.581813565000086.547721182000004.58181356
5000087.047721182000004.581813565000087.547721182000004.58181356
5000088.047721182000004.581813565000088.547721182000004.58181356
5000089.047721182000004.581813565000089.547721182000004.58181356
5000090.047721182000004.581813565000090.547721182000004.58181356
5000091.047721182000004.581813565000091.547721182000004.58181356
5000092.047721182000004.581813565000092.547721182000004.58181356
5000093.047721182000004.581813565000093.547721182000004.58181356
5000094.047721182000004.581813565000094.547721182000004.58181356
5000095.047721182000004.581813565000095.547721182000004.58181356
5000096.047721182000004.581813565000096.547721182000004.58181356
5000097.047721182000004.581813565000097.547721182000004.58181356
5000098.047721182000004.581813565000098.547721182000004.58181356
5000099.047721182000004.581813565000099.547721182000004.58181356
5000000.547721182000004.081813565000001.047721182000004.08181356
5000001.547721182000004.081813565000002.047721182000004.08181356
5000002.547721182000004.081813565000003.047721182000004.08181356
5000003.547721182000004.081813565000004.047721182000004.08181356
5000004.547721182000004.081813565000005.047721182000004.08181356
5000005.547721182000004.081813565000006.047721182000004.08181356
5000006.547721182000004.081813565000007.047721182000004.08181356
5000007.547721182000004.081813565000008.047721182000004.08181356
5000008.547721182000004.081813565000009.047721182000004.08181356
5000009.547721182000004.081813565000010.047721182000004.08181356
5000010.547721182000004.081813565000011.047721182000004.08181356
5000011.547721182000004.081813565000012.047721182000004.08181356
5000012.547721182000004.081813565000013.047721182000004.08181356
5000013.547721182000004.081813565000014.047721182000004.08181356
5000014.547721182000004.081813565000015.047721182000004.08181356
5000015.547721182000004.081813565000016.047721182000004.08181356
5000016.547721182000004.081813565000017.047721182000004.08181356
5000017.547721182000004.081813565000018.047721182000004.08181356
5000018.547721182000004.081813565000019.047721182000004.08181356
5000019.547721182000004.081813565000020.047721182000004.08181356
5000020.547721182000004.081813565000021.047721182000004.08181356
5000021.547721182000004.081813565000022.047721182000004.08181356
5000022.547721182000004.081813565000023.047721182000004.08181356
5000023.547721182000004.081813565000024.047721182000004.08181356
5000024.547721182000004.081813565000025.047721182000004.08181356
5000025.547721182000004.081813565000026.047721182000004.08181356
5000026.547721182000004.081813565000027.047721182000004.08181356
5000027.547721182000004.081813565000028.047721182000004.08181356
5000028.547721182000004.081813565000029.047721182000004.08181356
5000029.547721182000004.081813565000030.047721182000004.08181356
5000030.547721182000004.081813565000031.047721182000004.08181356
5000031.547721182000004.081813565000032.047721182000004.08181356
5000032.547721182000004.081813565000033.047721182000004.08181356
5000033.547721182000004.081813565000034.047721182000004.08181356
5000034.547721182000004.081813565000035.047721182000004.08181356
5000035.547721182000004.081813565000036.047721182000004.08181356
5000036.547721182000004.081813565000037.047721182000004.08181356
5000037.547721182000004.081813565000038.047721182000004.08181356
5000038.547721182000004.081813565000039.047721182000004.08181356
5000039.547721182000004.081813565000040.047721182000004.08181356
5000040.547721182000004.081813565000041.047721182000004.08181356
5000041.547721182000004.081813565000042.047721182000004.08181356
5000042.547721182000004.081813565000043.047721182000004.08181356
5000043.547721182000004.081813565000044.047721182000004.08181356
5000044.547721182000004.081813565000045.047721182000004.08181356
5000045.547721182000004.081813565000046.047721182000004.08181356
5000046.547721182000004.081813565000047.047721182000004.08181356
5000047.547721182000004.081813565000048.047721182000004.08181356
5000048.547721182000004.081813565000049.047721182000004.08181356
5000049.547721182000004.081813565000050.047721182000004.08181356
5000050.547721182000004.081813565000051.047721182000004.08181356
5000051.547721182000004.081813565000052.047721182000004.08181356
5000052.547721182000004.081813565000053.047721182000004.08181356
5000053.547721182000004.081813565000054.047721182000004.08181356
5000054.547721182000004.081813565000055.047721182000004.08181356
5000055.547721182000004.081813565000056.047721182000004.08181356
5000056.547721182000004.081813565000057.047721182000004.08181356
5000057.547721182000004.081813565000058.047721182000004.08181356
5000058.547721182000004.081813565000059.047721182000004.08181356
5000059.547721182000004.081813565000060.047721182000004.08181356
5000060.547721182000004.081813565000061.047721182000004.08181356
5000061.547721182000004.081813565000062.047721182000004.08181356
5000062.547721182000004.081813565000063.047721182000004.08181356
5000063.547721182000004.081813565000064.047721182000004.08181356
5000064.547721182000004.081813565000065.047721182000004.08181356
5000065.547721182000004.081813565000066.047721182000004.08181356
5000066.547721182000004.081813565000067.047721182000004.08181356