Geom Title=Geometry2D
Program Version=6.70
Viewing Rectangle= 4999994.9299224 , 5000105.13775405 , 2000008.61192438 , 1999991.44948635 

Storage Area=Perimeter 1     ,,
Storage Area Surface Line= 5 
5000000.297721181999992.37541228                
5000000.297721182000007.68599845                
5000099.743623782000007.83181356                
5000099.743623781999992.22959717                
5000000.297721181999992.37541228                
Storage Area Type= 1 
Storage Area Area=
Storage Area Min Elev=
Storage Area Is2D=-1
Storage Area Point Generation Data=,,2,0.5
Storage Area 2D Points= 1968 
5000001.297721182000007.081813565000003.297721182000007.08181356
5000005.297721182000007.081813565000007.297721182000007.08181356
5000009.297721182000007.081813565000011.297721182000007.08181356
5000013.297721182000007.081813565000015.297721182000007.08181356
5000017.297721182000007.081813565000019.297721182000007.08181356
5000021.297721182000007.081813565000023.297721182000007.08181356
5000025.297721182000007.081813565000027.297721182000007.08181356
5000029.297721182000007.081813565000031.297721182000007.08181356
5000033.297721182000007.081813565000035.297721182000007.08181356
5000037.297721182000007.081813565000039.297721182000007.08181356
5000041.297721182000007.081813565000043.297721182000007.08181356
5000045.297721182000007.081813565000047.297721182000007.08181356
5000049.297721182000007.081813565000051.297721182000007.08181356
5000053.297721182000007.081813565000055.297721182000007.08181356
5000057.297721182000007.081813565000059.297721182000007.08181356
5000061.297721182000007.081813565000063.297721182000007.08181356
5000065.297721182000007.081813565000067.297721182000007.08181356
5000069.297721182000007.081813565000071.297721182000007.08181356
5000073.297721182000007.081813565000075.297721182000007.08181356
5000077.297721182000007.081813565000079.297721182000007.08181356
5000081.297721182000007.081813565000083.297721182000007.08181356
5000085.297721182000007.081813565000087.297721182000007.08181356
5000089.297721182000007.081813565000091.297721182000007.08181356
5000093.297721182000007.081813565000095.297721182000007.08181356
5000097.297721182000007.081813565000001.297721182000006.58181356
5000003.297721182000006.581813565000005.297721182000006.58181356
5000007.297721182000006.581813565000009.297721182000006.58181356
5000011.297721182000006.581813565000013.297721182000006.58181356
5000015.297721182000006.581813565000017.297721182000006.58181356
5000019.297721182000006.581813565000021.297721182000006.58181356
5000023.297721182000006.581813565000025.297721182000006.58181356
5000027.297721182000006.581813565000029.297721182000006.58181356
5000031.297721182000006.581813565000033.297721182000006.58181356
5000035.297721182000006.581813565000037.297721182000006.58181356
5000039.297721182000006.581813565000041.297721182000006.58181356
5000043.297721182000006.581813565000045.297721182000006.58181356
5000047.297721182000006.581813565000049.297721182000006.58181356
5000051.297721182000006.581813565000053.297721182000006.58181356
5000055.297721182000006.581813565000057.297721182000006.58181356
5000059.297721182000006.581813565000061.297721182000006.58181356
5000063.297721182000006.581813565000065.297721182000006.58181356
5000067.297721182000006.581813565000069.297721182000006.58181356
5000071.297721182000006.581813565000073.297721182000006.58181356
5000075.297721182000006.581813565000077.297721182000006.58181356
5000079.297721182000006.581813565000081.297721182000006.58181356
5000083.297721182000006.581813565000085.297721182000006.58181356
5000087.297721182000006.581813565000089.297721182000006.58181356
5000091.297721182000006.581813565000093.297721182000006.58181356
5000095.297721182000006.581813565000097.297721182000006.58181356
5000001.297721182000006.081813565000003.297721182000006.08181356
5000005.297721182000006.081813565000007.297721182000006.08181356
5000009.297721182000006.081813565000011.297721182000006.08181356
5000013.297721182000006.081813565000015.297721182000006.08181356
5000017.297721182000006.081813565000019.297721182000006.08181356
5000021.297721182000006.081813565000023.297721182000006.08181356
5000025.297721182000006.081813565000027.297721182000006.08181356
5000029.297721182000006.081813565000031.297721182000006.08181356
5000033.297721182000006.081813565000035.297721182000006.08181356
5000037.297721182000006.081813565000039.297721182000006.08181356
5000041.297721182000006.081813565000043.297721182000006.08181356
5000045.297721182000006.081813565000047.297721182000006.08181356
5000049.297721182000006.081813565000051.297721182000006.08181356
5000053.297721182000006.081813565000055.297721182000006.08181356
5000057.297721182000006.081813565000059.297721182000006.08181356
5000061.297721182000006.081813565000063.297721182000006.08181356
5000065.297721182000006.081813565000067.297721182000006.08181356
5000069.297721182000006.081813565000071.297721182000006.08181356
5000073.297721182000006.081813565000075.297721182000006.08181356
5000077.297721182000006.081813565000079.297721182000006.08181356
5000081.297721182000006.081813565000083.297721182000006.08181356
5000085.297721182000006.081813565000087.297721182000006.08181356
5000089.297721182000006.081813565000091.297721182000006.08181356
5000093.297721182000006.081813565000095.297721182000006.08181356
5000097.297721182000006.081813565000001.297721182000004.58181356
5000003.297721182000004.581813565000005.297721182000004.58181356
5000007.297721182000004.581813565000009.297721182000004.58181356
5000011.297721182000004.581813565000013.297721182000004.58181356
5000015.297721182000004.581813565000017.297721182000004.58181356
5000019.297721182000004.581813565000021.297721182000004.58181356
5000023.297721182000004.581813565000025.297721182000004.58181356
5000027.297721182000004.581813565000029.297721182000004.58181356
5000031.297721182000004.581813565000033.297721182000004.58181356
5000035.297721182000004.581813565000037.297721182000004.58181356
5000039.297721182000004.581813565000041.297721182000004.58181356
5000043.297721182000004.581813565000045.297721182000004.58181356
5000047.297721182000004.581813565000049.297721182000004.58181356
5000051.297721182000004.581813565000053.297721182000004.58181356
5000055.297721182000004.581813565000057.297721182000004.58181356
5000059.297721182000004.581813565000061.297721182000004.58181356
5000063.297721182000004.581813565000065.297721182000004.58181356
5000067.297721182000004.581813565000069.297721182000004.58181356
5000071.297721182000004.581813565000073.297721182000004.58181356
5000075.297721182000004.581813565000077.297721182000004.58181356
5000079.297721182000004.581813565000081.297721182000004.58181356
5000083.297721182000004.581813565000085.297721182000004.58181356
5000087.297721182000004.581813565000089.297721182000004.58181356
5000091.297721182000004.581813565000093.297721182000004.58181356
5000095.297721182000004.581813565000097.297721182000004.58181356
5000001.297721182000004.081813565000003.297721182000004.08181356
5000005.297721182000004.081813565000007.297721182000004.08181356
5000009.297721182000004.081813565000011.297721182000004.08181356
5000013.297721182000004.081813565000015.297721182000004.08181356
5000017.297721182000004.081813565000019.297721182000004.08181356
5000021.297721182000004.081813565000023.297721182000004.08181356
5000025.297721182000004.081813565000027.297721182000004.08181356
5000029.297721182000004.081813565000031.297721182000004.08181356
5000033.297721182000004.081813565000035.297721182000004.08181356
5000037.297721182000004.081813565000039.297721182000004.08181356
5000041.297721182000004.081813565000043.297721182000004.08181356
5000045.297721182000004.081813565000047.297721182000004.08181356
5000049.297721182000004.081813565000051.297721182000004.08181356
5000053.297721182000004.081813565000055.297721182000004.08181356
5000057.297721182000004.081813565000059.297721182000004.08181356
5000061.297721182000004.081813565000063.297721182000004.08181356
5000065.297721182000004.081813565000067.297721182000004.08181356
5000069.297721182000004.081813565000071.297721182000004.08181356
5000073.297721182000004.081813565000075.297721182000004.08181356
5000077.297721182000004.081813565000079.297721182000004.08181356
5000081.297721182000004.081813565000083.297721182000004.08181356
5000085.297721182000004.081813565000087.297721182000004.08181356
5000089.297721182000004.081813565000091.297721182000004.08181356
5000093.297721182000004.081813565000095.297721182000004.08181356
5000097.297721182000004.081813565000001.297721182000003.58181356
5000003.297721182000003.581813565000005.297721182000003.58181356
5000007.297721182000003.581813565000009.297721182000003.58181356
5000011.297721182000003.581813565000013.297721182000003.58181356
5000015.297721182000003.581813565000017.297721182000003.58181356
5000019.297721182000003.581813565000021.297721182000003.58181356
5000023.297721182000003.581813565000025.297721182000003.58181356
5000027.297721182000003.581813565000029.297721182000003.58181356
5000031.297721182000003.581813565000033.297721182000003.58181356
5000035.297721182000003.581813565000037.297721182000003.58181356
5000039.297721182000003.581813565000041.297721182000003.58181356
5000043.297721182000003.581813565000045.297721182000003.58181356
5000047.297721182000003.581813565000049.297721182000003.58181356
5000051.297721182000003.581813565000053.297721182000003.58181356
5000055.297721182000003.581813565000057.297721182000003.58181356
5000059.297721182000003.581813565000061.297721182000003.58181356
5000063.297721182000003.581813565000065.297721182000003.58181356
5000067.297721182000003.581813565000069.297721182000003.58181356
5000071.297721182000003.581813565000073.297721182000003.58181356
5000075.297721182000003.581813565000077.297721182000003.58181356
5000079.297721182000003.581813565000081.297721182000003.58181356
5000083.297721182000003.581813565000085.297721182000003.58181356
5000087.297721182000003.581813565000089.297721182000003.58181356
5000091.297721182000003.581813565000093.297721182000003.58181356
5000095.297721182000003.581813565000097.297721182000003.58181356
5000001.297721182000003.081813565000003.297721182000003.08181356
5000005.297721182000003.081813565000007.297721182000003.08181356
5000009.297721182000003.081813565000011.297721182000003.08181356
5000013.297721182000003.081813565000015.297721182000003.08181356
5000017.297721182000003.081813565000019.297721182000003.08181356
5000021.297721182000003.081813565000023.297721182000003.08181356
5000025.297721182000003.081813565000027.297721182000003.08181356
5000029.297721182000003.081813565000031.297721182000003.08181356
5000033.297721182000003.081813565000035.297721182000003.08181356
5000037.297721182000003.081813565000039.297721182000003.08181356
5000041.297721182000003.081813565000043.297721182000003.08181356
5000045.297721182000003.081813565000047.297721182000003.08181356
5000049.297721182000003.081813565000051.297721182000003.08181356
5000053.297721182000003.081813565000055.297721182000003.08181356
5000057.297721182000003.081813565000059.297721182000003.08181356
5000061.297721182000003.081813565000063.297721182000003.08181356
5000065.297721182000003.081813565000067.297721182000003.08181356
5000069.297721182000003.081813565000071.297721182000003.08181356
5000073.297721182000003.081813565000075.297721182000003.08181356
5000077.297721182000003.081813565000079.297721182000003.08181356
5000081.297721182000003.081813565000083.297721182000003.08181356
5000085.297721182000003.081813565000087.297721182000003.08181356
5000089.297721182000003.081813565000091.297721182000003.08181356
5000093.297721182000003.081813565000095.297721182000003.08181356
5000097.297721182000003.081813565000001.297721182000002.58181356
5000003.297721182000002.581813565000005.297721182000002.58181356
5000007.297721182000002.581813565000009.297721182000002.58181356
5000011.297721182000002.581813565000013.297721182000002.58181356
5000015.297721182000002.581813565000017.297721182000002.58181356
5000019.297721182000002.581813565000021.297721182000002.58181356
5000023.297721182000002.581813565000025.297721182000002.58181356
5000027.297721182000002.581813565000029.297721182000002.58181356
5000031.297721182000002.581813565000033.297721182000002.58181356
5000035.297721182000002.581813565000037.297721182000002.58181356
5000039.297721182000002.581813565000041.297721182000002.58181356
5000043.297721182000002.581813565000045.297721182000002.58181356
5000047.297721182000002.581813565000049.297721182000002.58181356
5000051.297721182000002.581813565000053.297721182000002.58181356
5000055.297721182000002.581813565000057.297721182000002.58181356
5000059.297721182000002.581813565000061.297721182000002.58181356
5000063.297721182000002.581813565000065.297721182000002.58181356
5000067.297721182000002.581813565000069.297721182000002.58181356
5000071.297721182000002.581813565000073.297721182000002.58181356
5000075.297721182000002.581813565000077.297721182000002.58181356
5000079.297721182000002.581813565000081.297721182000002.58181356
5000083.297721182000002.581813565000085.297721182000002.58181356
5000087.297721182000002.581813565000089.297721182000002.58181356
5000091.297721182000002.581813565000093.297721182000002.58181356
5000095.297721182000002.581813565000097.297721182000002.58181356
5000001.297721182000002.081813565000003.297721182000002.08181356
5000005.297721182000002.081813565000007.297721182000002.08181356
5000009.297721182000002.081813565000011.297721182000002.08181356
5000013.297721182000002.081813565000015.297721182000002.08181356
5000017.297721182000002.081813565000019.297721182000002.08181356
5000021.297721182000002.081813565000023.297721182000002.08181356
5000025.297721182000002.081813565000027.297721182000002.08181356
5000029.297721182000002.081813565000031.297721182000002.08181356
5000033.297721182000002.081813565000035.297721182000002.08181356
5000037.297721182000002.081813565000039.297721182000002.08181356
5000041.297721182000002.081813565000043.297721182000002.08181356
5000045.297721182000002.081813565000047.297721182000002.08181356
5000049.297721182000002.081813565000051.297721182000002.08181356
5000053.297721182000002.081813565000055.297721182000002.08181356
5000057.297721182000002.081813565000059.297721182000002.08181356
5000061.297721182000002.081813565000063.297721182000002.08181356
5000065.297721182000002.081813565000067.297721182000002.08181356
5000069.297721182000002.081813565000071.297721182000002.08181356
5000073.297721182000002.081813565000075.297721182000002.08181356
5000077.297721182000002.081813565000079.297721182000002.08181356
5000081.297721182000002.081813565000083.297721182000002.08181356
5000085.297721182000002.081813565000087.297721182000002.08181356
5000089.297721182000002.081813565000091.297721182000002.08181356
5000093.297721182000002.081813565000095.297721182000002.08181356
5000097.297721182000002.081813565000001.297721182000001.58181356
5000003.297721182000001.581813565000005.297721182000001.58181356
5000007.297721182000001.581813565000009.297721182000001.58181356
5000011.297721182000001.581813565000013.297721182000001.58181356
5000015.297721182000001.581813565000017.297721182000001.58181356
5000019.297721182000001.581813565000021.297721182000001.58181356
5000023.297721182000001.581813565000025.297721182000001.58181356
5000027.297721182000001.581813565000029.297721182000001.58181356
5000031.297721182000001.581813565000033.297721182000001.58181356
5000035.297721182000001.581813565000037.297721182000001.58181356
5000039.297721182000001.581813565000041.297721182000001.58181356
5000043.297721182000001.581813565000045.297721182000001.58181356
5000047.297721182000001.581813565000049.297721182000001.58181356
5000051.297721182000001.581813565000053.297721182000001.58181356
5000055.297721182000001.581813565000057.297721182000001.58181356
5000059.297721182000001.581813565000061.297721182000001.58181356
5000063.297721182000001.581813565000065.297721182000001.58181356
5000067.297721182000001.581813565000069.297721182000001.58181356
5000071.297721182000001.581813565000073.297721182000001.58181356
5000075.297721182000001.581813565000077.297721182000001.58181356
5000079.297721182000001.581813565000081.297721182000001.58181356
5000083.297721182000001.581813565000085.297721182000001.58181356
5000087.297721182000001.581813565000089.297721182000001.58181356
5000091.297721182000001.581813565000093.297721182000001.58181356
5000095.297721182000001.581813565000097.297721182000001.58181356
5000001.297721182000001.081813565000003.297721182000001.08181356
5000005.297721182000001.081813565000007.297721182000001.08181356
5000009.297721182000001.081813565000011.297721182000001.08181356
5000013.297721182000001.081813565000015.297721182000001.08181356
5000017.297721182000001.081813565000019.297721182000001.08181356
5000021.297721182000001.081813565000023.297721182000001.08181356
5000025.297721182000001.081813565000027.297721182000001.08181356
5000029.297721182000001.081813565000031.297721182000001.08181356
5000033.297721182000001.081813565000035.297721182000001.08181356
5000037.297721182000001.081813565000039.297721182000001.08181356
5000041.297721182000001.081813565000043.297721182000001.08181356
5000045.297721182000001.081813565000047.297721182000001.08181356
5000049.297721182000001.081813565000051.297721182000001.08181356
5000053.297721182000001.081813565000055.297721182000001.08181356
5000057.297721182000001.081813565000059.297721182000001.08181356
5000061.297721182000001.081813565000063.297721182000001.08181356
5000065.297721182000001.081813565000067.297721182000001.08181356
5000069.297721182000001.081813565000071.297721182000001.08181356
5000073.297721182000001.081813565000075.297721182000001.08181356
5000077.297721182000001.081813565000079.297721182000001.08181356
5000081.297721182000001.081813565000083.297721182000001.08181356
5000085.297721182000001.081813565000087.297721182000001.08181356
5000089.297721182000001.081813565000091.297721182000001.08181356
5000093.297721182000001.081813565000095.297721182000001.08181356
5000097.297721182000001.081813565000001.297721182000000.58181356
5000003.297721182000000.581813565000005.297721182000000.58181356
5000007.297721182000000.581813565000009.297721182000000.58181356
5000011.297721182000000.581813565000013.297721182000000.58181356
5000015.297721182000000.581813565000017.297721182000000.58181356
5000019.297721182000000.581813565000021.297721182000000.58181356
5000023.297721182000000.581813565000025.297721182000000.58181356
5000027.297721182000000.581813565000029.297721182000000.58181356
5000031.297721182000000.581813565000033.297721182000000.58181356
5000035.297721182000000.581813565000037.297721182000000.58181356
5000039.297721182000000.581813565000041.297721182000000.58181356
5000043.297721182000000.581813565000045.297721182000000.58181356
5000047.297721182000000.581813565000049.297721182000000.58181356
5000051.297721182000000.581813565000053.297721182000000.58181356
5000055.297721182000000.581813565000057.297721182000000.58181356
5000059.297721182000000.581813565000061.297721182000000.58181356
5000063.297721182000000.581813565000065.297721182000000.58181356
5000067.297721182000000.581813565000069.297721182000000.58181356
5000071.297721182000000.581813565000073.297721182000000.58181356
5000075.297721182000000.581813565000077.297721182000000.58181356
5000079.297721182000000.581813565000081.297721182000000.58181356
5000083.297721182000000.581813565000085.297721182000000.58181356
5000087.297721182000000.581813565000089.297721182000000.58181356
5000091.297721182000000.581813565000093.297721182000000.58181356
5000095.297721182000000.581813565000097.297721182000000.58181356
5000001.297721182000000.081813565000003.297721182000000.08181356
5000005.297721182000000.081813565000007.297721182000000.08181356
5000009.297721182000000.081813565000011.297721182000000.08181356
5000013.297721182000000.081813565000015.297721182000000.08181356
5000017.297721182000000.081813565000019.297721182000000.08181356
5000021.297721182000000.081813565000023.297721182000000.08181356
5000025.297721182000000.081813565000027.297721182000000.08181356
5000029.297721182000000.081813565000031.297721182000000.08181356
5000033.297721182000000.081813565000035.297721182000000.08181356
5000037.297721182000000.081813565000039.297721182000000.08181356
5000041.297721182000000.081813565000043.297721182000000.08181356
5000045.297721182000000.081813565000047.297721182000000.08181356
5000049.297721182000000.081813565000051.297721182000000.08181356
5000053.297721182000000.081813565000055.297721182000000.08181356
5000057.297721182000000.081813565000059.297721182000000.08181356
5000061.297721182000000.081813565000063.297721182000000.08181356
5000065.297721182000000.081813565000067.297721182000000.08181356
5000069.297721182000000.081813565000071.297721182000000.08181356
5000073.297721182000000.081813565000075.297721182000000.08181356
5000077.297721182000000.081813565000079.297721182000000.08181356
5000081.297721182000000.081813565000083.297721182000000.08181356
5000085.297721182000000.081813565000087.297721182000000.08181356
5000089.297721182000000.081813565000091.297721182000000.08181356
5000093.297721182000000.081813565000095.297721182000000.08181356
5000097.297721182000000.081813565000001.297721181999999.58181356
5000003.297721181999999.581813565000005.297721181999999.58181356
5000007.297721181999999.581813565000009.297721181999999.58181356
5000011.297721181999999.581813565000013.297721181999999.58181356
5000015.297721181999999.581813565000017.297721181999999.58181356
5000019.297721181999999.581813565000021.297721181999999.58181356
5000023.297721181999999.581813565000025.297721181999999.58181356
5000027.297721181999999.581813565000029.297721181999999.58181356
5000031.297721181999999.581813565000033.297721181999999.58181356
5000035.297721181999999.581813565000037.297721181999999.58181356
5000039.297721181999999.581813565000041.297721181999999.58181356
5000043.297721181999999.581813565000045.297721181999999.58181356
5000047.297721181999999.581813565000049.297721181999999.58181356
5000051.297721181999999.581813565000053.297721181999999.58181356
5000055.297721181999999.581813565000057.297721181999999.58181356
5000059.297721181999999.581813565000061.297721181999999.58181356
5000063.297721181999999.581813565000065.297721181999999.58181356
5000067.297721181999999.581813565000069.297721181999999.58181356
5000071.297721181999999.581813565000073.297721181999999.58181356
5000075.297721181999999.581813565000077.297721181999999.58181356
5000079.297721181999999.581813565000081.297721181999999.58181356
5000083.297721181999999.581813565000085.297721181999999.58181356
5000087.297721181999999.581813565000089.297721181999999.58181356
5000091.297721181999999.581813565000093.297721181999999.58181356
5000095.297721181999999.581813565000097.297721181999999.58181356
5000001.297721181999999.081813565000003.297721181999999.08181356
5000005.297721181999999.081813565000007.297721181999999.08181356
5000009.297721181999999.081813565000011.297721181999999.08181356
5000013.297721181999999.081813565000015.297721181999999.08181356
5000017.297721181999999.081813565000019.297721181999999.08181356
5000021.297721181999999.081813565000023.297721181999999.08181356
5000025.297721181999999.081813565000027.297721181999999.08181356
5000029.297721181999999.081813565000031.297721181999999.08181356
5000033.297721181999999.081813565000035.297721181999999.08181356
5000037.297721181999999.081813565000039.297721181999999.08181356
5000041.297721181999999.081813565000043.297721181999999.08181356
5000045.297721181999999.081813565000047.297721181999999.08181356
5000049.297721181999999.081813565000051.297721181999999.08181356
5000053.297721181999999.081813565000055.297721181999999.08181356
5000057.297721181999999.081813565000059.297721181999999.08181356
5000061.297721181999999.081813565000063.297721181999999.08181356
5000065.297721181999999.081813565000067.297721181999999.08181356
5000069.297721181999999.081813565000071.297721181999999.08181356
5000073.297721181999999.081813565000075.297721181999999.08181356
5000077.297721181999999.081813565000079.297721181999999.08181356
5000081.297721181999999.081813565000083.297721181999999.08181356
5000085.297721181999999.081813565000087.297721181999999.08181356
5000089.297721181999999.081813565000091.297721181999999.08181356
5000093.297721181999999.081813565000095.297721181999999.08181356
5000097.297721181999999.081813565000001.297721181999998.58181356
5000003.297721181999998.581813565000005.297721181999998.58181356
5000007.297721181999998.581813565000009.297721181999998.58181356
5000011.297721181999998.581813565000013.297721181999998.58181356
5000015.297721181999998.581813565000017.297721181999998.58181356
5000019.297721181999998.581813565000021.297721181999998.58181356
5000023.297721181999998.581813565000025.297721181999998.58181356
5000027.297721181999998.581813565000029.297721181999998.58181356
5000031.297721181999998.581813565000033.297721181999998.58181356
5000035.297721181999998.581813565000037.297721181999998.58181356
5000039.297721181999998.581813565000041.297721181999998.58181356
5000043.297721181999998.581813565000045.297721181999998.58181356
5000047.297721181999998.581813565000049.297721181999998.58181356
5000051.297721181999998.581813565000053.297721181999998.58181356
5000055.297721181999998.581813565000057.297721181999998.58181356
5000059.297721181999998.581813565000061.297721181999998.58181356
5000063.297721181999998.581813565000065.297721181999998.58181356
5000067.297721181999998.581813565000069.297721181999998.58181356
5000071.297721181999998.581813565000073.297721181999998.58181356
5000075.297721181999998.581813565000077.297721181999998.58181356
5000079.297721181999998.581813565000081.297721181999998.58181356
5000083.297721181999998.581813565000085.297721181999998.58181356
5000087.297721181999998.581813565000089.297721181999998.58181356
5000091.297721181999998.581813565000093.297721181999998.58181356
5000095.297721181999998.581813565000097.297721181999998.58181356
5000001.297721181999998.081813565000003.297721181999998.08181356
5000005.297721181999998.081813565000007.297721181999998.08181356
5000009.297721181999998.081813565000011.297721181999998.08181356
5000013.297721181999998.081813565000015.297721181999998.08181356
5000017.297721181999998.081813565000019.297721181999998.08181356
5000021.297721181999998.081813565000023.297721181999998.08181356
5000025.297721181999998.081813565000027.297721181999998.08181356
5000029.297721181999998.081813565000031.297721181999998.08181356
5000033.297721181999998.081813565000035.297721181999998.08181356
5000037.297721181999998.081813565000039.297721181999998.08181356
5000041.297721181999998.081813565000043.297721181999998.08181356
5000045.297721181999998.081813565000047.297721181999998.08181356
5000049.297721181999998.081813565000051.297721181999998.08181356
5000053.297721181999998.081813565000055.297721181999998.08181356
5000057.297721181999998.081813565000059.297721181999998.08181356
5000061.297721181999998.081813565000063.297721181999998.08181356
5000065.297721181999998.081813565000067.297721181999998.08181356
5000069.297721181999998.081813565000071.297721181999998.08181356
5000073.297721181999998.081813565000075.297721181999998.08181356
5000077.297721181999998.081813565000079.297721181999998.08181356
5000081.297721181999998.081813565000083.297721181999998.08181356
5000085.297721181999998.081813565000087.297721181999998.08181356
5000089.297721181999998.081813565000091.297721181999998.08181356
5000093.297721181999998.081813565000095.297721181999998.08181356
5000097.297721181999998.081813565000001.297721181999997.58181356
5000003.297721181999997.581813565000005.297721181999997.58181356
5000007.297721181999997.581813565000009.297721181999997.58181356
5000011.297721181999997.581813565000013.297721181999997.58181356
5000015.297721181999997.581813565000017.297721181999997.58181356
5000019.297721181999997.581813565000021.297721181999997.58181356
5000023.297721181999997.581813565000025.297721181999997.58181356
5000027.297721181999997.581813565000029.297721181999997.58181356
5000031.297721181999997.581813565000033.297721181999997.58181356
5000035.297721181999997.581813565000037.297721181999997.58181356
5000039.297721181999997.581813565000041.297721181999997.58181356
5000043.297721181999997.581813565000045.297721181999997.58181356
5000047.297721181999997.581813565000049.297721181999997.58181356
5000051.297721181999997.581813565000053.297721181999997.58181356
5000055.297721181999997.581813565000057.297721181999997.58181356
5000059.297721181999997.581813565000061.297721181999997.58181356
5000063.297721181999997.581813565000065.297721181999997.58181356
5000067.297721181999997.581813565000069.297721181999997.58181356
5000071.297721181999997.581813565000073.297721181999997.58181356
5000075.297721181999997.581813565000077.297721181999997.58181356
5000079.297721181999997.581813565000081.297721181999997.58181356
5000083.297721181999997.581813565000085.297721181999997.58181356
5000087.297721181999997.581813565000089.297721181999997.58181356
5000091.297721181999997.581813565000093.297721181999997.58181356
5000095.297721181999997.581813565000097.297721181999997.58181356
5000001.297721181999997.081813565000003.297721181999997.08181356
5000005.297721181999997.081813565000007.297721181999997.08181356
5000009.297721181999997.081813565000011.297721181999997.08181356
5000013.297721181999997.081813565000015.297721181999997.08181356
5000017.297721181999997.081813565000019.297721181999997.08181356
5000021.297721181999997.081813565000023.297721181999997.08181356
5000025.297721181999997.081813565000027.297721181999997.08181356
5000029.297721181999997.081813565000031.297721181999997.08181356
5000033.297721181999997.081813565000035.297721181999997.08181356
5000037.297721181999997.081813565000039.297721181999997.08181356
5000041.297721181999997.081813565000043.297721181999997.08181356