Geom Title=Geometry2D
Program Version=6.70
Viewing Rectangle= 4999994.9299224 , 5000105.13775405 , 2000008.61192438 , 1999991.44948635 

Storage Area=Perimeter 1     ,,
Storage Area Surface Line= 5 
5000000.297721181999992.37541228                
5000000.297721182000007.68599845                
5000099.743623782000007.83181356                
5000099.743623781999992.22959717                
5000000.297721181999992.37541228                
Storage Area Type= 1 
Storage Area Area=
Storage Area Min Elev=
Storage Area Is2D=-1
Storage Area Point Generation Data=,,1,1
Storage Area 2D Points= 2079 
5000000.797721182000007.331813565000001.797721182000007.33181356
5000002.797721182000007.331813565000003.797721182000007.33181356
5000004.797721182000007.331813565000005.797721182000007.33181356
5000006.797721182000007.331813565000007.797721182000007.33181356
5000008.797721182000007.331813565000009.797721182000007.33181356
5000010.797721182000007.331813565000011.797721182000007.33181356
5000012.797721182000007.331813565000013.797721182000007.33181356
5000014.797721182000007.331813565000015.797721182000007.33181356
5000016.797721182000007.331813565000017.797721182000007.33181356
5000018.797721182000007.331813565000019.797721182000007.33181356
5000020.797721182000007.331813565000021.797721182000007.33181356
5000022.797721182000007.331813565000023.797721182000007.33181356
5000024.797721182000007.331813565000025.797721182000007.33181356
5000026.797721182000007.331813565000027.797721182000007.33181356
5000028.797721182000007.331813565000029.797721182000007.33181356
5000030.797721182000007.331813565000031.797721182000007.33181356
5000032.797721182000007.331813565000033.797721182000007.33181356
5000034.797721182000007.331813565000035.797721182000007.33181356
5000036.797721182000007.331813565000037.797721182000007.33181356
5000038.797721182000007.331813565000039.797721182000007.33181356
5000040.797721182000007.331813565000041.797721182000007.33181356
5000042.797721182000007.331813565000043.797721182000007.33181356
5000044.797721182000007.331813565000045.797721182000007.33181356
5000046.797721182000007.331813565000047.797721182000007.33181356
5000048.797721182000007.331813565000049.797721182000007.33181356
5000050.797721182000007.331813565000051.797721182000007.33181356
5000052.797721182000007.331813565000053.797721182000007.33181356
5000054.797721182000007.331813565000055.797721182000007.33181356
5000056.797721182000007.331813565000057.797721182000007.33181356
5000058.797721182000007.331813565000059.797721182000007.33181356
5000060.797721182000007.331813565000061.797721182000007.33181356
5000062.797721182000007.331813565000063.797721182000007.33181356
5000064.797721182000007.331813565000065.797721182000007.33181356
5000066.797721182000007.331813565000067.797721182000007.33181356
5000068.797721182000007.331813565000069.797721182000007.33181356
5000070.797721182000007.331813565000071.797721182000007.33181356
5000072.797721182000007.331813565000073.797721182000007.33181356
5000074.797721182000007.331813565000075.797721182000007.33181356
5000076.797721182000007.331813565000077.797721182000007.33181356
5000078.797721182000007.331813565000079.797721182000007.33181356
5000080.797721182000007.331813565000081.797721182000007.33181356
5000082.797721182000007.331813565000083.797721182000007.33181356
5000084.797721182000007.331813565000085.797721182000007.33181356
5000086.797721182000007.331813565000087.797721182000007.33181356
5000088.797721182000007.331813565000089.797721182000007.33181356
5000090.797721182000007.331813565000091.797721182000007.33181356
5000092.797721182000007.331813565000093.797721182000007.33181356
5000094.797721182000007.331813565000095.797721182000007.33181356
5000096.797721182000007.331813565000097.797721182000007.33181356
5000098.797721182000007.331813565000000.797721182000006.33181356
5000001.797721182000006.331813565000002.797721182000006.33181356
5000003.797721182000006.331813565000004.797721182000006.33181356
5000005.797721182000006.331813565000006.797721182000006.33181356
5000007.797721182000006.331813565000008.797721182000006.33181356
5000009.797721182000006.331813565000010.797721182000006.33181356
5000011.797721182000006.331813565000012.797721182000006.33181356
5000013.797721182000006.331813565000014.797721182000006.33181356
5000015.797721182000006.331813565000016.797721182000006.33181356
5000017.797721182000006.331813565000018.797721182000006.33181356
5000019.797721182000006.331813565000020.797721182000006.33181356
5000021.797721182000006.331813565000022.797721182000006.33181356
5000023.797721182000006.331813565000024.797721182000006.33181356
5000025.797721182000006.331813565000026.797721182000006.33181356
5000027.797721182000006.331813565000028.797721182000006.33181356
5000029.797721182000006.331813565000030.797721182000006.33181356
5000031.797721182000006.331813565000032.797721182000006.33181356
5000033.797721182000006.331813565000034.797721182000006.33181356
5000035.797721182000006.331813565000036.797721182000006.33181356
5000037.797721182000006.331813565000038.797721182000006.33181356
5000039.797721182000006.331813565000040.797721182000006.33181356
5000041.797721182000006.331813565000042.797721182000006.33181356
5000043.797721182000006.331813565000044.797721182000006.33181356
5000045.797721182000006.331813565000046.797721182000006.33181356
5000047.797721182000006.331813565000048.797721182000006.33181356
5000049.797721182000006.331813565000050.797721182000006.33181356
5000051.797721182000006.331813565000052.797721182000006.33181356
5000053.797721182000006.331813565000054.797721182000006.33181356
5000055.797721182000006.331813565000056.797721182000006.33181356
5000057.797721182000006.331813565000058.797721182000006.33181356
5000059.797721182000006.331813565000060.797721182000006.33181356
5000061.797721182000006.331813565000062.797721182000006.33181356
5000063.797721182000006.331813565000064.797721182000006.33181356
5000065.797721182000006.331813565000066.797721182000006.33181356
5000067.797721182000006.331813565000068.797721182000006.33181356
5000069.797721182000006.331813565000070.797721182000006.33181356
5000071.797721182000006.331813565000072.797721182000006.33181356
5000073.797721182000006.331813565000074.797721182000006.33181356
5000075.797721182000006.331813565000076.797721182000006.33181356
5000077.797721182000006.331813565000078.797721182000006.33181356
5000079.797721182000006.331813565000080.797721182000006.33181356
5000081.797721182000006.331813565000082.797721182000006.33181356
5000083.797721182000006.331813565000084.797721182000006.33181356
5000085.797721182000006.331813565000086.797721182000006.33181356
5000087.797721182000006.331813565000088.797721182000006.33181356
5000089.797721182000006.331813565000090.797721182000006.33181356
5000091.797721182000006.331813565000092.797721182000006.33181356
5000093.797721182000006.331813565000094.797721182000006.33181356
5000095.797721182000006.331813565000096.797721182000006.33181356
5000097.797721182000006.331813565000098.797721182000006.33181356
5000000.797721182000004.331813565000001.797721182000004.33181356
5000002.797721182000004.331813565000003.797721182000004.33181356
5000004.797721182000004.331813565000005.797721182000004.33181356
5000006.797721182000004.331813565000007.797721182000004.33181356
5000008.797721182000004.331813565000009.797721182000004.33181356
5000010.797721182000004.331813565000011.797721182000004.33181356
5000012.797721182000004.331813565000013.797721182000004.33181356
5000014.797721182000004.331813565000015.797721182000004.33181356
5000016.797721182000004.331813565000017.797721182000004.33181356
5000018.797721182000004.331813565000019.797721182000004.33181356
5000020.797721182000004.331813565000021.797721182000004.33181356
5000022.797721182000004.331813565000023.797721182000004.33181356
5000024.797721182000004.331813565000025.797721182000004.33181356
5000026.797721182000004.331813565000027.797721182000004.33181356
5000028.797721182000004.331813565000029.797721182000004.33181356
5000030.797721182000004.331813565000031.797721182000004.33181356
5000032.797721182000004.331813565000033.797721182000004.33181356
5000034.797721182000004.331813565000035.797721182000004.33181356
5000036.797721182000004.331813565000037.797721182000004.33181356
5000038.797721182000004.331813565000039.797721182000004.33181356
5000040.797721182000004.331813565000041.797721182000004.33181356
5000042.797721182000004.331813565000043.797721182000004.33181356
5000044.797721182000004.331813565000045.797721182000004.33181356
5000046.797721182000004.331813565000047.797721182000004.33181356
5000048.797721182000004.331813565000049.797721182000004.33181356
5000050.797721182000004.331813565000051.797721182000004.33181356
5000052.797721182000004.331813565000053.797721182000004.33181356
5000054.797721182000004.331813565000055.797721182000004.33181356
5000056.797721182000004.331813565000057.797721182000004.33181356
5000058.797721182000004.331813565000059.797721182000004.33181356
5000060.797721182000004.331813565000061.797721182000004.33181356
5000062.797721182000004.331813565000063.797721182000004.33181356
5000064.797721182000004.331813565000065.797721182000004.33181356
5000066.797721182000004.331813565000067.797721182000004.33181356
5000068.797721182000004.331813565000069.797721182000004.33181356
5000070.797721182000004.331813565000071.797721182000004.33181356
5000072.797721182000004.331813565000073.797721182000004.33181356
5000074.797721182000004.331813565000075.797721182000004.33181356
5000076.797721182000004.331813565000077.797721182000004.33181356
5000078.797721182000004.331813565000079.797721182000004.33181356
5000080.797721182000004.331813565000081.797721182000004.33181356
5000082.797721182000004.331813565000083.797721182000004.33181356
5000084.797721182000004.331813565000085.797721182000004.33181356
5000086.797721182000004.331813565000087.797721182000004.33181356
5000088.797721182000004.331813565000089.797721182000004.33181356
5000090.797721182000004.331813565000091.797721182000004.33181356
5000092.797721182000004.331813565000093.797721182000004.33181356
5000094.797721182000004.331813565000095.797721182000004.33181356
5000096.797721182000004.331813565000097.797721182000004.33181356
5000098.797721182000004.331813565000000.797721182000003.33181356
5000001.797721182000003.331813565000002.797721182000003.33181356
5000003.797721182000003.331813565000004.797721182000003.33181356
5000005.797721182000003.331813565000006.797721182000003.33181356
5000007.797721182000003.331813565000008.797721182000003.33181356
5000009.797721182000003.331813565000010.797721182000003.33181356
5000011.797721182000003.331813565000012.797721182000003.33181356
5000013.797721182000003.331813565000014.797721182000003.33181356
5000015.797721182000003.331813565000016.797721182000003.33181356
5000017.797721182000003.331813565000018.797721182000003.33181356
5000019.797721182000003.331813565000020.797721182000003.33181356
5000021.797721182000003.331813565000022.797721182000003.33181356
5000023.797721182000003.331813565000024.797721182000003.33181356
5000025.797721182000003.331813565000026.797721182000003.33181356
5000027.797721182000003.331813565000028.797721182000003.33181356
5000029.797721182000003.331813565000030.797721182000003.33181356
5000031.797721182000003.331813565000032.797721182000003.33181356
5000033.797721182000003.331813565000034.797721182000003.33181356
5000035.797721182000003.331813565000036.797721182000003.33181356
5000037.797721182000003.331813565000038.797721182000003.33181356
5000039.797721182000003.331813565000040.797721182000003.33181356
5000041.797721182000003.331813565000042.797721182000003.33181356
5000043.797721182000003.331813565000044.797721182000003.33181356
5000045.797721182000003.331813565000046.797721182000003.33181356
5000047.797721182000003.331813565000048.797721182000003.33181356
5000049.797721182000003.331813565000050.797721182000003.33181356
5000051.797721182000003.331813565000052.797721182000003.33181356
5000053.797721182000003.331813565000054.797721182000003.33181356
5000055.797721182000003.331813565000056.797721182000003.33181356
5000057.797721182000003.331813565000058.797721182000003.33181356
5000059.797721182000003.331813565000060.797721182000003.33181356
5000061.797721182000003.331813565000062.797721182000003.33181356
5000063.797721182000003.331813565000064.797721182000003.33181356
5000065.797721182000003.331813565000066.797721182000003.33181356
5000067.797721182000003.331813565000068.797721182000003.33181356
5000069.797721182000003.331813565000070.797721182000003.33181356
5000071.797721182000003.331813565000072.797721182000003.33181356
5000073.797721182000003.331813565000074.797721182000003.33181356
5000075.797721182000003.331813565000076.797721182000003.33181356
5000077.797721182000003.331813565000078.797721182000003.33181356
5000079.797721182000003.331813565000080.797721182000003.33181356
5000081.797721182000003.331813565000082.797721182000003.33181356
5000083.797721182000003.331813565000084.797721182000003.33181356
5000085.797721182000003.331813565000086.797721182000003.33181356
5000087.797721182000003.331813565000088.797721182000003.33181356
5000089.797721182000003.331813565000090.797721182000003.33181356
5000091.797721182000003.331813565000092.797721182000003.33181356
5000093.797721182000003.331813565000094.797721182000003.33181356
5000095.797721182000003.331813565000096.797721182000003.33181356
5000097.797721182000003.331813565000098.797721182000003.33181356
5000000.797721182000002.331813565000001.797721182000002.33181356
5000002.797721182000002.331813565000003.797721182000002.33181356
5000004.797721182000002.331813565000005.797721182000002.33181356
5000006.797721182000002.331813565000007.797721182000002.33181356
5000008.797721182000002.331813565000009.797721182000002.33181356
5000010.797721182000002.331813565000011.797721182000002.33181356
5000012.797721182000002.331813565000013.797721182000002.33181356
5000014.797721182000002.331813565000015.797721182000002.33181356
5000016.797721182000002.331813565000017.797721182000002.33181356
5000018.797721182000002.331813565000019.797721182000002.33181356
5000020.797721182000002.331813565000021.797721182000002.33181356
5000022.797721182000002.331813565000023.797721182000002.33181356
5000024.797721182000002.331813565000025.797721182000002.33181356
5000026.797721182000002.331813565000027.797721182000002.33181356
5000028.797721182000002.331813565000029.797721182000002.33181356
5000030.797721182000002.331813565000031.797721182000002.33181356
5000032.797721182000002.331813565000033.797721182000002.33181356
5000034.797721182000002.331813565000035.797721182000002.33181356
5000036.797721182000002.331813565000037.797721182000002.33181356
5000038.797721182000002.331813565000039.797721182000002.33181356
5000040.797721182000002.331813565000041.797721182000002.33181356
5000042.797721182000002.331813565000043.797721182000002.33181356
5000044.797721182000002.331813565000045.797721182000002.33181356
5000046.797721182000002.331813565000047.797721182000002.33181356
5000048.797721182000002.331813565000049.797721182000002.33181356
5000050.797721182000002.331813565000051.797721182000002.33181356
5000052.797721182000002.331813565000053.797721182000002.33181356
5000054.797721182000002.331813565000055.797721182000002.33181356
5000056.797721182000002.331813565000057.797721182000002.33181356
5000058.797721182000002.331813565000059.797721182000002.33181356
5000060.797721182000002.331813565000061.797721182000002.33181356
5000062.797721182000002.331813565000063.797721182000002.33181356
5000064.797721182000002.331813565000065.797721182000002.33181356
5000066.797721182000002.331813565000067.797721182000002.33181356
5000068.797721182000002.331813565000069.797721182000002.33181356
5000070.797721182000002.331813565000071.797721182000002.33181356
5000072.797721182000002.331813565000073.797721182000002.33181356
5000074.797721182000002.331813565000075.797721182000002.33181356
5000076.797721182000002.331813565000077.797721182000002.33181356
5000078.797721182000002.331813565000079.797721182000002.33181356
5000080.797721182000002.331813565000081.797721182000002.33181356
5000082.797721182000002.331813565000083.797721182000002.33181356
5000084.797721182000002.331813565000085.797721182000002.33181356
5000086.797721182000002.331813565000087.797721182000002.33181356
5000088.797721182000002.331813565000089.797721182000002.33181356
5000090.797721182000002.331813565000091.797721182000002.33181356
5000092.797721182000002.331813565000093.797721182000002.33181356
5000094.797721182000002.331813565000095.797721182000002.33181356
5000096.797721182000002.331813565000097.797721182000002.33181356
5000098.797721182000002.331813565000000.797721182000001.33181356
5000001.797721182000001.331813565000002.797721182000001.33181356
5000003.797721182000001.331813565000004.797721182000001.33181356
5000005.797721182000001.331813565000006.797721182000001.33181356
5000007.797721182000001.331813565000008.797721182000001.33181356
5000009.797721182000001.331813565000010.797721182000001.33181356
5000011.797721182000001.331813565000012.797721182000001.33181356
5000013.797721182000001.331813565000014.797721182000001.33181356
5000015.797721182000001.331813565000016.797721182000001.33181356
5000017.797721182000001.331813565000018.797721182000001.33181356
5000019.797721182000001.331813565000020.797721182000001.33181356
5000021.797721182000001.331813565000022.797721182000001.33181356
5000023.797721182000001.331813565000024.797721182000001.33181356
5000025.797721182000001.331813565000026.797721182000001.33181356
5000027.797721182000001.331813565000028.797721182000001.33181356
5000029.797721182000001.331813565000030.797721182000001.33181356
5000031.797721182000001.331813565000032.797721182000001.33181356
5000033.797721182000001.331813565000034.797721182000001.33181356
5000035.797721182000001.331813565000036.797721182000001.33181356
5000037.797721182000001.331813565000038.797721182000001.33181356
5000039.797721182000001.331813565000040.797721182000001.33181356
5000041.797721182000001.331813565000042.797721182000001.33181356
5000043.797721182000001.331813565000044.797721182000001.33181356
5000045.797721182000001.331813565000046.797721182000001.33181356
5000047.797721182000001.331813565000048.797721182000001.33181356
5000049.797721182000001.331813565000050.797721182000001.33181356
5000051.797721182000001.331813565000052.797721182000001.33181356
5000053.797721182000001.331813565000054.797721182000001.33181356
5000055.797721182000001.331813565000056.797721182000001.33181356
5000057.797721182000001.331813565000058.797721182000001.33181356
5000059.797721182000001.331813565000060.797721182000001.33181356
5000061.797721182000001.331813565000062.797721182000001.33181356
5000063.797721182000001.331813565000064.797721182000001.33181356
5000065.797721182000001.331813565000066.797721182000001.33181356
5000067.797721182000001.331813565000068.797721182000001.33181356
5000069.797721182000001.331813565000070.797721182000001.33181356
5000071.797721182000001.331813565000072.797721182000001.33181356
5000073.797721182000001.331813565000074.797721182000001.33181356
5000075.797721182000001.331813565000076.797721182000001.33181356
5000077.797721182000001.331813565000078.797721182000001.33181356
5000079.797721182000001.331813565000080.797721182000001.33181356
5000081.797721182000001.331813565000082.797721182000001.33181356
5000083.797721182000001.331813565000084.797721182000001.33181356
5000085.797721182000001.331813565000086.797721182000001.33181356
5000087.797721182000001.331813565000088.797721182000001.33181356
5000089.797721182000001.331813565000090.797721182000001.33181356
5000091.797721182000001.331813565000092.797721182000001.33181356
5000093.797721182000001.331813565000094.797721182000001.33181356
5000095.797721182000001.331813565000096.797721182000001.33181356
5000097.797721182000001.331813565000098.797721182000001.33181356
5000000.797721182000000.331813565000001.797721182000000.33181356
5000002.797721182000000.331813565000003.797721182000000.33181356
5000004.797721182000000.331813565000005.797721182000000.33181356
5000006.797721182000000.331813565000007.797721182000000.33181356
5000008.797721182000000.331813565000009.797721182000000.33181356
5000010.797721182000000.331813565000011.797721182000000.33181356
5000012.797721182000000.331813565000013.797721182000000.33181356
5000014.797721182000000.331813565000015.797721182000000.33181356
5000016.797721182000000.331813565000017.797721182000000.33181356
5000018.797721182000000.331813565000019.797721182000000.33181356
5000020.797721182000000.331813565000021.797721182000000.33181356
5000022.797721182000000.331813565000023.797721182000000.33181356
5000024.797721182000000.331813565000025.797721182000000.33181356
5000026.797721182000000.331813565000027.797721182000000.33181356
5000028.797721182000000.331813565000029.797721182000000.33181356
5000030.797721182000000.331813565000031.797721182000000.33181356
5000032.797721182000000.331813565000033.797721182000000.33181356
5000034.797721182000000.331813565000035.797721182000000.33181356
5000036.797721182000000.331813565000037.797721182000000.33181356
5000038.797721182000000.331813565000039.797721182000000.33181356
5000040.797721182000000.331813565000041.797721182000000.33181356
5000042.797721182000000.331813565000043.797721182000000.33181356
5000044.797721182000000.331813565000045.797721182000000.33181356
5000046.797721182000000.331813565000047.797721182000000.33181356
5000048.797721182000000.331813565000049.797721182000000.33181356
5000050.797721182000000.331813565000051.797721182000000.33181356
5000052.797721182000000.331813565000053.797721182000000.33181356
5000054.797721182000000.331813565000055.797721182000000.33181356
5000056.797721182000000.331813565000057.797721182000000.33181356
5000058.797721182000000.331813565000059.797721182000000.33181356
5000060.797721182000000.331813565000061.797721182000000.33181356
5000062.797721182000000.331813565000063.797721182000000.33181356
5000064.797721182000000.331813565000065.797721182000000.33181356
5000066.797721182000000.331813565000067.797721182000000.33181356
5000068.797721182000000.331813565000069.797721182000000.33181356
5000070.797721182000000.331813565000071.797721182000000.33181356
5000072.797721182000000.331813565000073.797721182000000.33181356
5000074.797721182000000.331813565000075.797721182000000.33181356
5000076.797721182000000.331813565000077.797721182000000.33181356
5000078.797721182000000.331813565000079.797721182000000.33181356
5000080.797721182000000.331813565000081.797721182000000.33181356
5000082.797721182000000.331813565000083.797721182000000.33181356
5000084.797721182000000.331813565000085.797721182000000.33181356
5000086.797721182000000.331813565000087.797721182000000.33181356
5000088.797721182000000.331813565000089.797721182000000.33181356
5000090.797721182000000.331813565000091.797721182000000.33181356
5000092.797721182000000.331813565000093.797721182000000.33181356
5000094.797721182000000.331813565000095.797721182000000.33181356
5000096.797721182000000.331813565000097.797721182000000.33181356
5000098.797721182000000.331813565000000.797721181999999.33181356
5000001.797721181999999.331813565000002.797721181999999.33181356
5000003.797721181999999.331813565000004.797721181999999.33181356
5000005.797721181999999.331813565000006.797721181999999.33181356
5000007.797721181999999.331813565000008.797721181999999.33181356
5000009.797721181999999.331813565000010.797721181999999.33181356
5000011.797721181999999.331813565000012.797721181999999.33181356
5000013.797721181999999.331813565000014.797721181999999.33181356
5000015.797721181999999.331813565000016.797721181999999.33181356
5000017.797721181999999.331813565000018.797721181999999.33181356
5000019.797721181999999.331813565000020.797721181999999.33181356
5000021.797721181999999.331813565000022.797721181999999.33181356
5000023.797721181999999.331813565000024.797721181999999.33181356
5000025.797721181999999.331813565000026.797721181999999.33181356
5000027.797721181999999.331813565000028.797721181999999.33181356
5000029.797721181999999.331813565000030.797721181999999.33181356
5000031.797721181999999.331813565000032.797721181999999.33181356
5000033.797721181999999.331813565000034.797721181999999.33181356
5000035.797721181999999.331813565000036.797721181999999.33181356
5000037.797721181999999.331813565000038.797721181999999.33181356
5000039.797721181999999.331813565000040.797721181999999.33181356
5000041.797721181999999.331813565000042.797721181999999.33181356
5000043.797721181999999.331813565000044.797721181999999.33181356
5000045.797721181999999.331813565000046.797721181999999.33181356
5000047.797721181999999.331813565000048.797721181999999.33181356
5000049.797721181999999.331813565000050.797721181999999.33181356
5000051.797721181999999.331813565000052.797721181999999.33181356
5000053.797721181999999.331813565000054.797721181999999.33181356
5000055.797721181999999.331813565000056.797721181999999.33181356
5000057.797721181999999.331813565000058.797721181999999.33181356
5000059.797721181999999.331813565000060.797721181999999.33181356
5000061.797721181999999.331813565000062.797721181999999.33181356
5000063.797721181999999.331813565000064.797721181999999.33181356
5000065.797721181999999.331813565000066.797721181999999.33181356
5000067.797721181999999.331813565000068.797721181999999.33181356
5000069.797721181999999.331813565000070.797721181999999.33181356
5000071.797721181999999.331813565000072.797721181999999.33181356
5000073.797721181999999.331813565000074.797721181999999.33181356
5000075.797721181999999.331813565000076.797721181999999.33181356
5000077.797721181999999.331813565000078.797721181999999.33181356
5000079.797721181999999.331813565000080.797721181999999.33181356
5000081.797721181999999.331813565000082.797721181999999.33181356
5000083.797721181999999.331813565000084.797721181999999.33181356
5000085.797721181999999.331813565000086.797721181999999.33181356
5000087.797721181999999.331813565000088.797721181999999.33181356
5000089.797721181999999.331813565000090.797721181999999.33181356
5000091.797721181999999.331813565000092.797721181999999.33181356
5000093.797721181999999.331813565000094.797721181999999.33181356
5000095.797721181999999.331813565000096.797721181999999.33181356
5000097.797721181999999.331813565000098.797721181999999.33181356
5000000.797721181999998.331813565000001.797721181999998.33181356
5000002.797721181999998.331813565000003.797721181999998.33181356
5000004.797721181999998.331813565000005.797721181999998.33181356
5000006.797721181999998.331813565000007.797721181999998.33181356
5000008.797721181999998.331813565000009.797721181999998.33181356
5000010.797721181999998.331813565000011.797721181999998.33181356
5000012.797721181999998.331813565000013.797721181999998.33181356
5000014.797721181999998.331813565000015.797721181999998.33181356
5000016.797721181999998.331813565000017.797721181999998.33181356
5000018.797721181999998.331813565000019.797721181999998.33181356
5000020.797721181999998.331813565000021.797721181999998.33181356
5000022.797721181999998.331813565000023.797721181999998.33181356
5000024.797721181999998.331813565000025.797721181999998.33181356
5000026.797721181999998.331813565000027.797721181999998.33181356
5000028.797721181999998.331813565000029.797721181999998.33181356
5000030.797721181999998.331813565000031.797721181999998.33181356
5000032.797721181999998.331813565000033.797721181999998.33181356
5000034.797721181999998.331813565000035.797721181999998.33181356
5000036.797721181999998.331813565000037.797721181999998.33181356
5000038.797721181999998.331813565000039.797721181999998.33181356
5000040.797721181999998.331813565000041.797721181999998.33181356
5000042.797721181999998.331813565000043.797721181999998.33181356
5000044.797721181999998.331813565000045.797721181999998.33181356
5000046.797721181999998.331813565000047.797721181999998.33181356
5000048.797721181999998.331813565000049.797721181999998.33181356
5000050.797721181999998.331813565000051.797721181999998.33181356
5000052.797721181999998.331813565000053.797721181999998.33181356
5000054.797721181999998.331813565000055.797721181999998.33181356
5000056.797721181999998.331813565000057.797721181999998.33181356
5000058.797721181999998.331813565000059.797721181999998.33181356
5000060.797721181999998.331813565000061.797721181999998.33181356
5000062.797721181999998.331813565000063.797721181999998.33181356
5000064.797721181999998.331813565000065.797721181999998.33181356
5000066.797721181999998.331813565000067.797721181999998.33181356
5000068.797721181999998.331813565000069.797721181999998.33181356
5000070.797721181999998.331813565000071.797721181999998.33181356
5000072.797721181999998.331813565000073.797721181999998.33181356
5000074.797721181999998.331813565000075.797721181999998.33181356
5000076.797721181999998.331813565000077.797721181999998.33181356
5000078.797721181999998.331813565000079.797721181999998.33181356
5000080.797721181999998.331813565000081.797721181999998.33181356
5000082.797721181999998.331813565000083.797721181999998.33181356
5000084.797721181999998.331813565000085.797721181999998.33181356
5000086.797721181999998.331813565000087.797721181999998.33181356
5000088.797721181999998.331813565000089.797721181999998.33181356
5000090.797721181999998.331813565000091.797721181999998.33181356
5000092.797721181999998.331813565000093.797721181999998.33181356
5000094.797721181999998.331813565000095.797721181999998.33181356
5000096.797721181999998.331813565000097.797721181999998.33181356
5000098.797721181999998.331813565000000.797721181999997.33181356
5000001.797721181999997.331813565000002.797721181999997.33181356
5000003.797721181999997.331813565000004.797721181999997.33181356
5000005.797721181999997.331813565000006.797721181999997.33181356
5000007.797721181999997.331813565000008.797721181999997.33181356
5000009.797721181999997.331813565000010.797721181999997.33181356
5000011.797721181999997.331813565000012.797721181999997.33181356