Geom Title=Geometry2D
Program Version=6.70
Viewing Rectangle= 4999994.89967085 , 5000104.85662225 , 2000008.8094424 , 1999991.1905576 

Storage Area=Perimeter 1     ,,
Storage Area Surface Line= 5 
  5000000.141421  2000008.008584                
  5000099.858579  2000008.008584                
  5000099.858579  1999991.991416                
  5000000.141421  1999991.991416                
  5000000.141421  2000008.008584                
Storage Area Type= 1 
Storage Area Area=
Storage Area Min Elev=
Storage Area Is2D=-1
Storage Area Point Generation Data=,,1,1
Storage Area 2D Points= 1196 
  5000000.641421  2000007.508584  5000001.641421  2000007.508584
  5000002.641421  2000007.508584  5000003.641421  2000007.508584
  5000004.641421  2000007.508584  5000005.641421  2000007.508584
  5000006.641421  2000007.508584  5000007.641421  2000007.508584
  5000008.641421  2000007.508584  5000009.641421  2000007.508584
  5000010.641421  2000007.508584  5000011.641421  2000007.508584
  5000012.641421  2000007.508584  5000013.641421  2000007.508584
  5000014.641421  2000007.508584  5000015.641421  2000007.508584
  5000016.641421  2000007.508584  5000017.641421  2000007.508584
  5000018.641421  2000007.508584  5000019.641421  2000007.508584
  5000020.641421  2000007.508584  5000021.641421  2000007.508584
  5000022.641421  2000007.508584  5000023.641421  2000007.508584
  5000024.641421  2000007.508584  5000025.641421  2000007.508584
  5000026.641421  2000007.508584  5000027.641421  2000007.508584
  5000028.641421  2000007.508584  5000029.641421  2000007.508584
  5000030.641421  2000007.508584  5000031.641421  2000007.508584
  5000032.641421  2000007.508584  5000033.641421  2000007.508584
  5000034.641421  2000007.508584  5000035.641421  2000007.508584
  5000036.641421  2000007.508584  5000037.641421  2000007.508584
  5000038.641421  2000007.508584  5000039.641421  2000007.508584
  5000040.641421  2000007.508584  5000041.641421  2000007.508584
  5000042.641421  2000007.508584  5000043.641421  2000007.508584
  5000044.641421  2000007.508584  5000045.641421  2000007.508584
  5000046.641421  2000007.508584  5000047.641421  2000007.508584
  5000048.641421  2000007.508584  5000049.641421  2000007.508584
  5000050.641421  2000007.508584  5000051.641421  2000007.508584
  5000052.641421  2000007.508584  5000053.641421  2000007.508584
  5000054.641421  2000007.508584  5000055.641421  2000007.508584
  5000056.641421  2000007.508584  5000057.641421  2000007.508584
  5000058.641421  2000007.508584  5000059.641421  2000007.508584
  5000060.641421  2000007.508584  5000061.641421  2000007.508584
  5000062.641421  2000007.508584  5000063.641421  2000007.508584
  5000064.641421  2000007.508584  5000065.641421  2000007.508584
  5000066.641421  2000007.508584  5000067.641421  2000007.508584
  5000068.641421  2000007.508584  5000069.641421  2000007.508584
  5000070.641421  2000007.508584  5000071.641421  2000007.508584
  5000072.641421  2000007.508584  5000073.641421  2000007.508584
  5000074.641421  2000007.508584  5000075.641421  2000007.508584
  5000076.641421  2000007.508584  5000077.641421  2000007.508584
  5000078.641421  2000007.508584  5000079.641421  2000007.508584
  5000080.641421  2000007.508584  5000081.641421  2000007.508584
  5000082.641421  2000007.508584  5000083.641421  2000007.508584
  5000084.641421  2000007.508584  5000085.641421  2000007.508584
  5000086.641421  2000007.508584  5000087.641421  2000007.508584
  5000088.641421  2000007.508584  5000089.641421  2000007.508584
  5000090.641421  2000007.508584  5000091.641421  2000007.508584
  5000092.641421  2000007.508584  5000093.641421  2000007.508584
  5000094.641421  2000007.508584  5000095.641421  2000007.508584
  5000096.641421  2000007.508584  5000097.641421  2000007.508584
  5000098.641421  2000007.508584  5000000.641421  2000000.508584
  5000001.641421  2000000.508584  5000002.641421  2000000.508584
  5000003.641421  2000000.508584  5000004.641421  2000000.508584
  5000005.641421  2000000.508584  5000006.641421  2000000.508584
  5000007.641421  2000000.508584  5000008.641421  2000000.508584
  5000009.641421  2000000.508584  5000010.641421  2000000.508584
  5000011.641421  2000000.508584  5000012.641421  2000000.508584
  5000013.641421  2000000.508584  5000014.641421  2000000.508584
  5000015.641421  2000000.508584  5000016.641421  2000000.508584
  5000017.641421  2000000.508584  5000018.641421  2000000.508584
  5000019.641421  2000000.508584  5000020.641421  2000000.508584
  5000021.641421  2000000.508584  5000022.641421  2000000.508584
  5000023.641421  2000000.508584  5000024.641421  2000000.508584
  5000025.641421  2000000.508584  5000026.641421  2000000.508584
  5000027.641421  2000000.508584  5000028.641421  2000000.508584
  5000029.641421  2000000.508584  5000030.641421  2000000.508584
  5000031.641421  2000000.508584  5000032.641421  2000000.508584
  5000033.641421  2000000.508584  5000034.641421  2000000.508584
  5000035.641421  2000000.508584  5000036.641421  2000000.508584
  5000037.641421  2000000.508584  5000038.641421  2000000.508584
  5000039.641421  2000000.508584  5000040.641421  2000000.508584
  5000041.641421  2000000.508584  5000042.641421  2000000.508584
  5000043.641421  2000000.508584  5000044.641421  2000000.508584
  5000045.641421  2000000.508584  5000046.641421  2000000.508584
  5000047.641421  2000000.508584  5000048.641421  2000000.508584
  5000049.641421  2000000.508584  5000050.641421  2000000.508584
  5000051.641421  2000000.508584  5000052.641421  2000000.508584
  5000053.641421  2000000.508584  5000054.641421  2000000.508584
  5000055.641421  2000000.508584  5000056.641421  2000000.508584
  5000057.641421  2000000.508584  5000058.641421  2000000.508584
  5000059.641421  2000000.508584  5000060.641421  2000000.508584
  5000061.641421  2000000.508584  5000062.641421  2000000.508584
  5000063.641421  2000000.508584  5000064.641421  2000000.508584
  5000065.641421  2000000.508584  5000066.641421  2000000.508584
  5000067.641421  2000000.508584  5000068.641421  2000000.508584
  5000069.641421  2000000.508584  5000070.641421  2000000.508584
  5000071.641421  2000000.508584  5000072.641421  2000000.508584
  5000073.641421  2000000.508584  5000074.641421  2000000.508584
  5000075.641421  2000000.508584  5000076.641421  2000000.508584
  5000077.641421  2000000.508584  5000078.641421  2000000.508584
  5000079.641421  2000000.508584  5000080.641421  2000000.508584
  5000081.641421  2000000.508584  5000082.641421  2000000.508584
  5000083.641421  2000000.508584  5000084.641421  2000000.508584
  5000085.641421  2000000.508584  5000086.641421  2000000.508584
  5000087.641421  2000000.508584  5000088.641421  2000000.508584
  5000089.641421  2000000.508584  5000090.641421  2000000.508584
  5000091.641421  2000000.508584  5000092.641421  2000000.508584
  5000093.641421  2000000.508584  5000094.641421  2000000.508584
  5000095.641421  2000000.508584  5000096.641421  2000000.508584
  5000097.641421  2000000.508584  5000098.641421  2000000.508584
  5000000.641421  1999999.508584  5000001.641421  1999999.508584
  5000002.641421  1999999.508584  5000003.641421  1999999.508584
  5000004.641421  1999999.508584  5000005.641421  1999999.508584
  5000006.641421  1999999.508584  5000007.641421  1999999.508584
  5000008.641421  1999999.508584  5000009.641421  1999999.508584
  5000010.641421  1999999.508584  5000011.641421  1999999.508584
  5000012.641421  1999999.508584  5000013.641421  1999999.508584
  5000014.641421  1999999.508584  5000015.641421  1999999.508584
  5000016.641421  1999999.508584  5000017.641421  1999999.508584
  5000018.641421  1999999.508584  5000019.641421  1999999.508584
  5000020.641421  1999999.508584  5000021.641421  1999999.508584
  5000022.641421  1999999.508584  5000023.641421  1999999.508584
  5000024.641421  1999999.508584  5000025.641421  1999999.508584
  5000026.641421  1999999.508584  5000027.641421  1999999.508584
  5000028.641421  1999999.508584  5000029.641421  1999999.508584
  5000030.641421  1999999.508584  5000031.641421  1999999.508584
  5000032.641421  1999999.508584  5000033.641421  1999999.508584
  5000034.641421  1999999.508584  5000035.641421  1999999.508584
  5000036.641421  1999999.508584  5000037.641421  1999999.508584
  5000038.641421  1999999.508584  5000039.641421  1999999.508584
  5000040.641421  1999999.508584  5000041.641421  1999999.508584
  5000042.641421  1999999.508584  5000043.641421  1999999.508584
  5000044.641421  1999999.508584  5000045.641421  1999999.508584
  5000046.641421  1999999.508584  5000047.641421  1999999.508584
  5000048.641421  1999999.508584  5000049.641421  1999999.508584
  5000050.641421  1999999.508584  5000051.641421  1999999.508584
  5000052.641421  1999999.508584  5000053.641421  1999999.508584
  5000054.641421  1999999.508584  5000055.641421  1999999.508584
  5000056.641421  1999999.508584  5000057.641421  1999999.508584
  5000058.641421  1999999.508584  5000059.641421  1999999.508584
  5000060.641421  1999999.508584  5000061.641421  1999999.508584
  5000062.641421  1999999.508584  5000063.641421  1999999.508584
  5000064.641421  1999999.508584  5000065.641421  1999999.508584
  5000066.641421  1999999.508584  5000067.641421  1999999.508584
  5000068.641421  1999999.508584  5000069.641421  1999999.508584
  5000070.641421  1999999.508584  5000071.641421  1999999.508584
  5000072.641421  1999999.508584  5000073.641421  1999999.508584
  5000074.641421  1999999.508584  5000075.641421  1999999.508584
  5000076.641421  1999999.508584  5000077.641421  1999999.508584
  5000078.641421  1999999.508584  5000079.641421  1999999.508584
  5000080.641421  1999999.508584  5000081.641421  1999999.508584
  5000082.641421  1999999.508584  5000083.641421  1999999.508584
  5000084.641421  1999999.508584  5000085.641421  1999999.508584
  5000086.641421  1999999.508584  5000087.641421  1999999.508584
  5000088.641421  1999999.508584  5000089.641421  1999999.508584
  5000090.641421  1999999.508584  5000091.641421  1999999.508584
  5000092.641421  1999999.508584  5000093.641421  1999999.508584
  5000094.641421  1999999.508584  5000095.641421  1999999.508584
  5000096.641421  1999999.508584  5000097.641421  1999999.508584
  5000098.641421  1999999.508584  5000000.641421  1999992.508584
  5000001.641421  1999992.508584  5000002.641421  1999992.508584
  5000003.641421  1999992.508584  5000004.641421  1999992.508584
  5000005.641421  1999992.508584  5000006.641421  1999992.508584
  5000007.641421  1999992.508584  5000008.641421  1999992.508584
  5000009.641421  1999992.508584  5000010.641421  1999992.508584
  5000011.641421  1999992.508584  5000012.641421  1999992.508584
  5000013.641421  1999992.508584  5000014.641421  1999992.508584
  5000015.641421  1999992.508584  5000016.641421  1999992.508584
  5000017.641421  1999992.508584  5000018.641421  1999992.508584
  5000019.641421  1999992.508584  5000020.641421  1999992.508584
  5000021.641421  1999992.508584  5000022.641421  1999992.508584
  5000023.641421  1999992.508584  5000024.641421  1999992.508584
  5000025.641421  1999992.508584  5000026.641421  1999992.508584
  5000027.641421  1999992.508584  5000028.641421  1999992.508584
  5000029.641421  1999992.508584  5000030.641421  1999992.508584
  5000031.641421  1999992.508584  5000032.641421  1999992.508584
  5000033.641421  1999992.508584  5000034.641421  1999992.508584
  5000035.641421  1999992.508584  5000036.641421  1999992.508584
  5000037.641421  1999992.508584  5000038.641421  1999992.508584
  5000039.641421  1999992.508584  5000040.641421  1999992.508584
  5000041.641421  1999992.508584  5000042.641421  1999992.508584
  5000043.641421  1999992.508584  5000044.641421  1999992.508584
  5000045.641421  1999992.508584  5000046.641421  1999992.508584
  5000047.641421  1999992.508584  5000048.641421  1999992.508584
  5000049.641421  1999992.508584  5000050.641421  1999992.508584
  5000051.641421  1999992.508584  5000052.641421  1999992.508584
  5000053.641421  1999992.508584  5000054.641421  1999992.508584
  5000055.641421  1999992.508584  5000056.641421  1999992.508584
  5000057.641421  1999992.508584  5000058.641421  1999992.508584
  5000059.641421  1999992.508584  5000060.641421  1999992.508584
  5000061.641421  1999992.508584  5000062.641421  1999992.508584
  5000063.641421  1999992.508584  5000064.641421  1999992.508584
  5000065.641421  1999992.508584  5000066.641421  1999992.508584
  5000067.641421  1999992.508584  5000068.641421  1999992.508584
  5000069.641421  1999992.508584  5000070.641421  1999992.508584
  5000071.641421  1999992.508584  5000072.641421  1999992.508584
  5000073.641421  1999992.508584  5000074.641421  1999992.508584
  5000075.641421  1999992.508584  5000076.641421  1999992.508584
  5000077.641421  1999992.508584  5000078.641421  1999992.508584
  5000079.641421  1999992.508584  5000080.641421  1999992.508584
  5000081.641421  1999992.508584  5000082.641421  1999992.508584
  5000083.641421  1999992.508584  5000084.641421  1999992.508584
  5000085.641421  1999992.508584  5000086.641421  1999992.508584
  5000087.641421  1999992.508584  5000088.641421  1999992.508584
  5000089.641421  1999992.508584  5000090.641421  1999992.508584
  5000091.641421  1999992.508584  5000092.641421  1999992.508584
  5000093.641421  1999992.508584  5000094.641421  1999992.508584
  5000095.641421  1999992.508584  5000096.641421  1999992.508584
  5000097.641421  1999992.508584  5000098.641421  1999992.508584
5000000.64000714  1999995.0666635000001.63717872  1999995.066663
5000002.63435029  1999995.0666635000003.63152186  1999995.066663
5000004.62869343  1999995.0666635000005.62586501  1999995.066663
5000006.62303658  1999995.0666635000007.62020815  1999995.066663
5000008.61737973  1999995.066663 5000009.6145513  1999995.066663
5000010.61172287  1999995.0666635000011.60889445  1999995.066663
5000012.60606602  1999995.0666635000013.60323759  1999995.066663
5000014.60040916  1999995.0666635000015.59758074  1999995.066663
5000016.59475231  1999995.0666635000017.59192388  1999995.066663
5000018.58909545  1999995.0666635000019.58626703  1999995.066663
 5000020.5834386  1999995.0666635000021.58061017  1999995.066663
5000022.57778175  1999995.0666635000023.57495332  1999995.066663
5000024.57212489  1999995.0666635000025.56929646  1999995.066663
5000026.56646804  1999995.0666635000027.56363961  1999995.066663
5000028.56081118  1999995.0666635000029.55798276  1999995.066663
5000030.55515433  1999995.066663 5000031.5523259  1999995.066663
5000032.54949747  1999995.0666635000033.54666905  1999995.066663
5000034.54384062  1999995.0666635000035.54101219  1999995.066663
5000036.53818377  1999995.0666635000037.53535534  1999995.066663
5000038.53252691  1999995.0666635000039.52969849  1999995.066663
5000040.52687006  1999995.0666635000041.52404163  1999995.066663
 5000042.5212132  1999995.0666635000043.51838478  1999995.066663
5000044.51555635  1999995.0666635000045.51272792  1999995.066663
 5000046.5098995  1999995.0666635000047.50707107  1999995.066663
5000048.50424264  1999995.0666635000049.50141421  1999995.066663
5000050.49858579  1999995.0666635000051.49575736  1999995.066663
5000052.49292893  1999995.066663 5000053.4901005  1999995.066663
5000054.48727208  1999995.0666635000055.48444365  1999995.066663
5000056.48161522  1999995.066663 5000057.4787868  1999995.066663
5000058.47595837  1999995.0666635000059.47312994  1999995.066663
5000060.47030151  1999995.0666635000061.46747309  1999995.066663
5000062.46464466  1999995.0666635000063.46181623  1999995.066663
5000064.45898781  1999995.0666635000065.45615938  1999995.066663
5000066.45333095  1999995.0666635000067.45050253  1999995.066663
 5000068.4476741  1999995.0666635000069.44484567  1999995.066663
5000070.44201724  1999995.0666635000071.43918882  1999995.066663
5000072.43636039  1999995.0666635000073.43353196  1999995.066663
5000074.43070354  1999995.0666635000075.42787511  1999995.066663
5000076.42504668  1999995.0666635000077.42221825  1999995.066663
5000078.41938983  1999995.066663 5000079.4165614  1999995.066663
5000080.41373297  1999995.0666635000081.41090455  1999995.066663
5000082.40807612  1999995.0666635000083.40524769  1999995.066663
5000084.40241926  1999995.0666635000085.39959084  1999995.066663
5000086.39676241  1999995.0666635000087.39393398  1999995.066663
5000088.39110556  1999995.0666635000089.38827713  1999995.066663
 5000090.3854487  1999995.0666635000091.38262028  1999995.066663
5000092.37979185  1999995.0666635000093.37696342  1999995.066663
5000094.37413499  1999995.0666635000095.37130657  1999995.066663
5000096.36847814  1999995.0666635000097.36564971  1999995.066663
5000098.36282128  1999995.0666635000099.35999286  1999995.066663
5000000.64000714  1999994.0666635000001.63717872  1999994.066663
5000002.63435029  1999994.0666635000003.63152186  1999994.066663
5000004.62869343  1999994.0666635000005.62586501  1999994.066663
5000006.62303658  1999994.0666635000007.62020815  1999994.066663
5000008.61737973  1999994.066663 5000009.6145513  1999994.066663
5000010.61172287  1999994.0666635000011.60889445  1999994.066663
5000012.60606602  1999994.0666635000013.60323759  1999994.066663
5000014.60040916  1999994.0666635000015.59758074  1999994.066663
5000016.59475231  1999994.0666635000017.59192388  1999994.066663
5000018.58909545  1999994.0666635000019.58626703  1999994.066663
 5000020.5834386  1999994.0666635000021.58061017  1999994.066663
5000022.57778175  1999994.0666635000023.57495332  1999994.066663
5000024.57212489  1999994.0666635000025.56929646  1999994.066663
5000026.56646804  1999994.0666635000027.56363961  1999994.066663
5000028.56081118  1999994.0666635000029.55798276  1999994.066663
5000030.55515433  1999994.066663 5000031.5523259  1999994.066663
5000032.54949747  1999994.0666635000033.54666905  1999994.066663
5000034.54384062  1999994.0666635000035.54101219  1999994.066663
5000036.53818377  1999994.0666635000037.53535534  1999994.066663
5000038.53252691  1999994.0666635000039.52969849  1999994.066663
5000040.52687006  1999994.0666635000041.52404163  1999994.066663
 5000042.5212132  1999994.0666635000043.51838478  1999994.066663
5000044.51555635  1999994.0666635000045.51272792  1999994.066663
 5000046.5098995  1999994.0666635000047.50707107  1999994.066663
5000048.50424264  1999994.0666635000049.50141421  1999994.066663
5000050.49858579  1999994.0666635000051.49575736  1999994.066663
5000052.49292893  1999994.066663 5000053.4901005  1999994.066663
5000054.48727208  1999994.0666635000055.48444365  1999994.066663
5000056.48161522  1999994.066663 5000057.4787868  1999994.066663
5000058.47595837  1999994.0666635000059.47312994  1999994.066663
5000060.47030151  1999994.0666635000061.46747309  1999994.066663
5000062.46464466  1999994.0666635000063.46181623  1999994.066663
5000064.45898781  1999994.0666635000065.45615938  1999994.066663
5000066.45333095  1999994.0666635000067.45050253  1999994.066663
 5000068.4476741  1999994.0666635000069.44484567  1999994.066663
5000070.44201724  1999994.0666635000071.43918882  1999994.066663
5000072.43636039  1999994.0666635000073.43353196  1999994.066663
5000074.43070354  1999994.0666635000075.42787511  1999994.066663
5000076.42504668  1999994.0666635000077.42221825  1999994.066663
5000078.41938983  1999994.066663 5000079.4165614  1999994.066663
5000080.41373297  1999994.0666635000081.41090455  1999994.066663
5000082.40807612  1999994.0666635000083.40524769  1999994.066663
5000084.40241926  1999994.0666635000085.39959084  1999994.066663
5000086.39676241  1999994.0666635000087.39393398  1999994.066663
5000088.39110556  1999994.0666635000089.38827713  1999994.066663
 5000090.3854487  1999994.0666635000091.38262028  1999994.066663
5000092.37979185  1999994.0666635000093.37696342  1999994.066663
5000094.37413499  1999994.0666635000095.37130657  1999994.066663
5000096.36847814  1999994.0666635000097.36564971  1999994.066663
5000098.36282128  1999994.0666635000099.35999286  1999994.066663
5000000.64000714  2000005.9333375000001.63717872  2000005.933337
5000002.63435029  2000005.9333375000003.63152186  2000005.933337
5000004.62869343  2000005.9333375000005.62586501  2000005.933337
5000006.62303658  2000005.9333375000007.62020815  2000005.933337
5000008.61737973  2000005.933337 5000009.6145513  2000005.933337
5000010.61172287  2000005.9333375000011.60889445  2000005.933337
5000012.60606602  2000005.9333375000013.60323759  2000005.933337
5000014.60040916  2000005.9333375000015.59758074  2000005.933337
5000016.59475231  2000005.9333375000017.59192388  2000005.933337
5000018.58909545  2000005.9333375000019.58626703  2000005.933337
 5000020.5834386  2000005.9333375000021.58061017  2000005.933337
5000022.57778175  2000005.9333375000023.57495332  2000005.933337
5000024.57212489  2000005.9333375000025.56929646  2000005.933337
5000026.56646804  2000005.9333375000027.56363961  2000005.933337
5000028.56081118  2000005.9333375000029.55798276  2000005.933337
5000030.55515433  2000005.933337 5000031.5523259  2000005.933337
5000032.54949747  2000005.9333375000033.54666905  2000005.933337
5000034.54384062  2000005.9333375000035.54101219  2000005.933337
5000036.53818377  2000005.9333375000037.53535534  2000005.933337
5000038.53252691  2000005.9333375000039.52969849  2000005.933337
5000040.52687006  2000005.9333375000041.52404163  2000005.933337
 5000042.5212132  2000005.9333375000043.51838478  2000005.933337
5000044.51555635  2000005.9333375000045.51272792  2000005.933337
 5000046.5098995  2000005.9333375000047.50707107  2000005.933337
5000048.50424264  2000005.9333375000049.50141421  2000005.933337
5000050.49858579  2000005.9333375000051.49575736  2000005.933337
5000052.49292893  2000005.933337 5000053.4901005  2000005.933337
5000054.48727208  2000005.9333375000055.48444365  2000005.933337
5000056.48161522  2000005.933337 5000057.4787868  2000005.933337
5000058.47595837  2000005.9333375000059.47312994  2000005.933337
5000060.47030151  2000005.9333375000061.46747309  2000005.933337
5000062.46464466  2000005.9333375000063.46181623  2000005.933337
5000064.45898781  2000005.9333375000065.45615938  2000005.933337
5000066.45333095  2000005.9333375000067.45050253  2000005.933337
 5000068.4476741  2000005.9333375000069.44484567  2000005.933337
5000070.44201724  2000005.9333375000071.43918882  2000005.933337
5000072.43636039  2000005.9333375000073.43353196  2000005.933337
5000074.43070354  2000005.9333375000075.42787511  2000005.933337
5000076.42504668  2000005.9333375000077.42221825  2000005.933337
5000078.41938983  2000005.933337 5000079.4165614  2000005.933337
5000080.41373297  2000005.9333375000081.41090455  2000005.933337
5000082.40807612  2000005.9333375000083.40524769  2000005.933337
5000084.40241926  2000005.9333375000085.39959084  2000005.933337
5000086.39676241  2000005.9333375000087.39393398  2000005.933337
5000088.39110556  2000005.9333375000089.38827713  2000005.933337
 5000090.3854487  2000005.9333375000091.38262028  2000005.933337
5000092.37979185  2000005.9333375000093.37696342  2000005.933337
5000094.37413499  2000005.9333375000095.37130657  2000005.933337
5000096.36847814  2000005.9333375000097.36564971  2000005.933337
5000098.36282128  2000005.9333375000099.35999286  2000005.933337
5000000.64000714  2000004.9333375000001.63717872  2000004.933337
5000002.63435029  2000004.9333375000003.63152186  2000004.933337
5000004.62869343  2000004.9333375000005.62586501  2000004.933337
5000006.62303658  2000004.9333375000007.62020815  2000004.933337
5000008.61737973  2000004.933337 5000009.6145513  2000004.933337
5000010.61172287  2000004.9333375000011.60889445  2000004.933337
5000012.60606602  2000004.9333375000013.60323759  2000004.933337
5000014.60040916  2000004.9333375000015.59758074  2000004.933337
5000016.59475231  2000004.9333375000017.59192388  2000004.933337
5000018.58909545  2000004.9333375000019.58626703  2000004.933337
 5000020.5834386  2000004.9333375000021.58061017  2000004.933337
5000022.57778175  2000004.9333375000023.57495332  2000004.933337
5000024.57212489  2000004.9333375000025.56929646  2000004.933337
5000026.56646804  2000004.9333375000027.56363961  2000004.933337
5000028.56081118  2000004.9333375000029.55798276  2000004.933337
5000030.55515433  2000004.933337 5000031.5523259  2000004.933337
5000032.54949747  2000004.9333375000033.54666905  2000004.933337
5000034.54384062  2000004.9333375000035.54101219  2000004.933337
5000036.53818377  2000004.9333375000037.53535534  2000004.933337
5000038.53252691  2000004.9333375000039.52969849  2000004.933337
5000040.52687006  2000004.9333375000041.52404163  2000004.933337
 5000042.5212132  2000004.9333375000043.51838478  2000004.933337
5000044.51555635  2000004.9333375000045.51272792  2000004.933337
 5000046.5098995  2000004.9333375000047.50707107  2000004.933337
5000048.50424264  2000004.9333375000049.50141421  2000004.933337
5000050.49858579  2000004.9333375000051.49575736  2000004.933337
5000052.49292893  2000004.933337 5000053.4901005  2000004.933337
5000054.48727208  2000004.9333375000055.48444365  2000004.933337
5000056.48161522  2000004.933337 5000057.4787868  2000004.933337
5000058.47595837  2000004.9333375000059.47312994  2000004.933337
5000060.47030151  2000004.9333375000061.46747309  2000004.933337
5000062.46464466  2000004.9333375000063.46181623  2000004.933337
5000064.45898781  2000004.9333375000065.45615938  2000004.933337
5000066.45333095  2000004.9333375000067.45050253  2000004.933337
 5000068.4476741  2000004.9333375000069.44484567  2000004.933337
5000070.44201724  2000004.9333375000071.43918882  2000004.933337
5000072.43636039  2000004.9333375000073.43353196  2000004.933337
5000074.43070354  2000004.9333375000075.42787511  2000004.933337
5000076.42504668  2000004.9333375000077.42221825  2000004.933337
5000078.41938983  2000004.933337 5000079.4165614  2000004.933337
5000080.41373297  2000004.9333375000081.41090455  2000004.933337
5000082.40807612  2000004.9333375000083.40524769  2000004.933337
5000084.40241926  2000004.9333375000085.39959084  2000004.933337
5000086.39676241  2000004.9333375000087.39393398  2000004.933337
5000088.39110556  2000004.9333375000089.38827713  2000004.933337
 5000090.3854487  2000004.9333375000091.38262028  2000004.933337
5000092.37979185  2000004.9333375000093.37696342  2000004.933337
5000094.37413499  2000004.9333375000095.37130657  2000004.933337
5000096.36847814  2000004.9333375000097.36564971  2000004.933337
5000098.36282128  2000004.9333375000099.35999286  2000004.933337
5000000.64000714        1999998.5000001.63717872        1999998.
5000002.63435029        1999998.5000003.63152186        1999998.
5000004.62869343        1999998.5000005.62586501        1999998.
5000006.62303658        1999998.5000007.62020815        1999998.
5000008.61737973        1999998. 5000009.6145513        1999998.
5000010.61172287        1999998.5000011.60889445        1999998.
5000012.60606602        1999998.5000013.60323759        1999998.
5000014.60040916        1999998.5000015.59758074        1999998.
5000016.59475231        1999998.5000017.59192388        1999998.
5000018.58909545        1999998.5000019.58626703        1999998.
 5000020.5834386        1999998.5000021.58061017        1999998.
5000022.57778175        1999998.5000023.57495332        1999998.
5000024.57212489        1999998.5000025.56929646        1999998.
5000026.56646804        1999998.5000027.56363961        1999998.
5000028.56081118        1999998.5000029.55798276        1999998.
5000030.55515433        1999998. 5000031.5523259        1999998.
5000032.54949747        1999998.5000033.54666905        1999998.
5000034.54384062        1999998.5000035.54101219        1999998.
5000036.53818377        1999998.5000037.53535534        1999998.
5000038.53252691        1999998.5000039.52969849        1999998.
5000040.52687006        1999998.5000041.52404163        1999998.
 5000042.5212132        1999998.5000043.51838478        1999998.
5000044.51555635        1999998.5000045.51272792        1999998.
 5000046.5098995        1999998.5000047.50707107        1999998.
5000048.50424264        1999998.5000049.50141421        1999998.
5000050.49858579        1999998.5000051.49575736        1999998.
5000052.49292893        1999998. 5000053.4901005        1999998.
5000054.48727208        1999998.5000055.48444365        1999998.
5000056.48161522        1999998. 5000057.4787868        1999998.
5000058.47595837        1999998.5000059.47312994        1999998.
5000060.47030151        1999998.5000061.46747309        1999998.
5000062.46464466        1999998.5000063.46181623        1999998.
5000064.45898781        1999998.5000065.45615938        1999998.
5000066.45333095        1999998.5000067.45050253        1999998.
 5000068.4476741        1999998.5000069.44484567        1999998.
5000070.44201724        1999998.5000071.43918882        1999998.
5000072.43636039        1999998.5000073.43353196        1999998.
5000074.43070354        1999998.5000075.42787511        1999998.
5000076.42504668        1999998.5000077.42221825        1999998.
5000078.41938983        1999998. 5000079.4165614        1999998.
5000080.41373297        1999998.5000081.41090455        1999998.
5000082.40807612        1999998.5000083.40524769        1999998.
5000084.40241926        1999998.5000085.39959084        1999998.
5000086.39676241        1999998.5000087.39393398        1999998.
5000088.39110556        1999998.5000089.38827713        1999998.
 5000090.3854487        1999998.5000091.38262028        1999998.
5000092.37979185        1999998.5000093.37696342        1999998.
5000094.37413499        1999998.5000095.37130657        1999998.
5000096.36847814        1999998.5000097.36564971        1999998.
5000098.36282128        1999998.5000099.35999286        1999998.
5000000.64000714        1999997.5000001.63717872        1999997.
5000002.63435029        1999997.5000003.63152186        1999997.
5000004.62869343        1999997.5000005.62586501        1999997.
5000006.62303658        1999997.5000007.62020815        1999997.