Geom Title=Geometry2D
Program Version=6.70
Viewing Rectangle= 4999994.88893259 , 5000105.08212584 , 2000008.8094424 , 1999991.1905576 

Storage Area=Perimeter 1     ,,
Storage Area Surface Line= 5 
  5000000.141421  2000008.008584                
  5000099.858579  2000008.008584                
  5000099.858579  1999991.991416                
  5000000.141421  1999991.991416                
  5000000.141421  2000008.008584                
Storage Area Type= 1 
Storage Area Area=
Storage Area Min Elev=
Storage Area Is2D=-1
Storage Area Point Generation Data=,,0.5,0.5
Storage Area 2D Points= 6376 
  5000000.391421  2000007.758584  5000000.891421  2000007.758584
  5000001.391421  2000007.758584  5000001.891421  2000007.758584
  5000002.391421  2000007.758584  5000002.891421  2000007.758584
  5000003.391421  2000007.758584  5000003.891421  2000007.758584
  5000004.391421  2000007.758584  5000004.891421  2000007.758584
  5000005.391421  2000007.758584  5000005.891421  2000007.758584
  5000006.391421  2000007.758584  5000006.891421  2000007.758584
  5000007.391421  2000007.758584  5000007.891421  2000007.758584
  5000008.391421  2000007.758584  5000008.891421  2000007.758584
  5000009.391421  2000007.758584  5000009.891421  2000007.758584
  5000010.391421  2000007.758584  5000010.891421  2000007.758584
  5000011.391421  2000007.758584  5000011.891421  2000007.758584
  5000012.391421  2000007.758584  5000012.891421  2000007.758584
  5000013.391421  2000007.758584  5000013.891421  2000007.758584
  5000014.391421  2000007.758584  5000014.891421  2000007.758584
  5000015.391421  2000007.758584  5000015.891421  2000007.758584
  5000016.391421  2000007.758584  5000016.891421  2000007.758584
  5000017.391421  2000007.758584  5000017.891421  2000007.758584
  5000018.391421  2000007.758584  5000018.891421  2000007.758584
  5000019.391421  2000007.758584  5000019.891421  2000007.758584
  5000020.391421  2000007.758584  5000020.891421  2000007.758584
  5000021.391421  2000007.758584  5000021.891421  2000007.758584
  5000022.391421  2000007.758584  5000022.891421  2000007.758584
  5000023.391421  2000007.758584  5000023.891421  2000007.758584
  5000024.391421  2000007.758584  5000024.891421  2000007.758584
  5000025.391421  2000007.758584  5000025.891421  2000007.758584
  5000026.391421  2000007.758584  5000026.891421  2000007.758584
  5000027.391421  2000007.758584  5000027.891421  2000007.758584
  5000028.391421  2000007.758584  5000028.891421  2000007.758584
  5000029.391421  2000007.758584  5000029.891421  2000007.758584
  5000030.391421  2000007.758584  5000030.891421  2000007.758584
  5000031.391421  2000007.758584  5000031.891421  2000007.758584
  5000032.391421  2000007.758584  5000032.891421  2000007.758584
  5000033.391421  2000007.758584  5000033.891421  2000007.758584
  5000034.391421  2000007.758584  5000034.891421  2000007.758584
  5000035.391421  2000007.758584  5000035.891421  2000007.758584
  5000036.391421  2000007.758584  5000036.891421  2000007.758584
  5000037.391421  2000007.758584  5000037.891421  2000007.758584
  5000038.391421  2000007.758584  5000038.891421  2000007.758584
  5000039.391421  2000007.758584  5000039.891421  2000007.758584
  5000040.391421  2000007.758584  5000040.891421  2000007.758584
  5000041.391421  2000007.758584  5000041.891421  2000007.758584
  5000042.391421  2000007.758584  5000042.891421  2000007.758584
  5000043.391421  2000007.758584  5000043.891421  2000007.758584
  5000044.391421  2000007.758584  5000044.891421  2000007.758584
  5000045.391421  2000007.758584  5000045.891421  2000007.758584
  5000046.391421  2000007.758584  5000046.891421  2000007.758584
  5000047.391421  2000007.758584  5000047.891421  2000007.758584
  5000048.391421  2000007.758584  5000048.891421  2000007.758584
  5000049.391421  2000007.758584  5000049.891421  2000007.758584
  5000050.391421  2000007.758584  5000050.891421  2000007.758584
  5000051.391421  2000007.758584  5000051.891421  2000007.758584
  5000052.391421  2000007.758584  5000052.891421  2000007.758584
  5000053.391421  2000007.758584  5000053.891421  2000007.758584
  5000054.391421  2000007.758584  5000054.891421  2000007.758584
  5000055.391421  2000007.758584  5000055.891421  2000007.758584
  5000056.391421  2000007.758584  5000056.891421  2000007.758584
  5000057.391421  2000007.758584  5000057.891421  2000007.758584
  5000058.391421  2000007.758584  5000058.891421  2000007.758584
  5000059.391421  2000007.758584  5000059.891421  2000007.758584
  5000060.391421  2000007.758584  5000060.891421  2000007.758584
  5000061.391421  2000007.758584  5000061.891421  2000007.758584
  5000062.391421  2000007.758584  5000062.891421  2000007.758584
  5000063.391421  2000007.758584  5000063.891421  2000007.758584
  5000064.391421  2000007.758584  5000064.891421  2000007.758584
  5000065.391421  2000007.758584  5000065.891421  2000007.758584
  5000066.391421  2000007.758584  5000066.891421  2000007.758584
  5000067.391421  2000007.758584  5000067.891421  2000007.758584
  5000068.391421  2000007.758584  5000068.891421  2000007.758584
  5000069.391421  2000007.758584  5000069.891421  2000007.758584
  5000070.391421  2000007.758584  5000070.891421  2000007.758584
  5000071.391421  2000007.758584  5000071.891421  2000007.758584
  5000072.391421  2000007.758584  5000072.891421  2000007.758584
  5000073.391421  2000007.758584  5000073.891421  2000007.758584
  5000074.391421  2000007.758584  5000074.891421  2000007.758584
  5000075.391421  2000007.758584  5000075.891421  2000007.758584
  5000076.391421  2000007.758584  5000076.891421  2000007.758584
  5000077.391421  2000007.758584  5000077.891421  2000007.758584
  5000078.391421  2000007.758584  5000078.891421  2000007.758584
  5000079.391421  2000007.758584  5000079.891421  2000007.758584
  5000080.391421  2000007.758584  5000080.891421  2000007.758584
  5000081.391421  2000007.758584  5000081.891421  2000007.758584
  5000082.391421  2000007.758584  5000082.891421  2000007.758584
  5000083.391421  2000007.758584  5000083.891421  2000007.758584
  5000084.391421  2000007.758584  5000084.891421  2000007.758584
  5000085.391421  2000007.758584  5000085.891421  2000007.758584
  5000086.391421  2000007.758584  5000086.891421  2000007.758584
  5000087.391421  2000007.758584  5000087.891421  2000007.758584
  5000088.391421  2000007.758584  5000088.891421  2000007.758584
  5000089.391421  2000007.758584  5000089.891421  2000007.758584
  5000090.391421  2000007.758584  5000090.891421  2000007.758584
  5000091.391421  2000007.758584  5000091.891421  2000007.758584
  5000092.391421  2000007.758584  5000092.891421  2000007.758584
  5000093.391421  2000007.758584  5000093.891421  2000007.758584
  5000094.391421  2000007.758584  5000094.891421  2000007.758584
  5000095.391421  2000007.758584  5000095.891421  2000007.758584
  5000096.391421  2000007.758584  5000096.891421  2000007.758584
  5000097.391421  2000007.758584  5000097.891421  2000007.758584
  5000098.391421  2000007.758584  5000098.891421  2000007.758584
  5000099.391421  2000007.758584  5000000.391421  2000007.258584
  5000000.891421  2000007.258584  5000001.391421  2000007.258584
  5000001.891421  2000007.258584  5000002.391421  2000007.258584
  5000002.891421  2000007.258584  5000003.391421  2000007.258584
  5000003.891421  2000007.258584  5000004.391421  2000007.258584
  5000004.891421  2000007.258584  5000005.391421  2000007.258584
  5000005.891421  2000007.258584  5000006.391421  2000007.258584
  5000006.891421  2000007.258584  5000007.391421  2000007.258584
  5000007.891421  2000007.258584  5000008.391421  2000007.258584
  5000008.891421  2000007.258584  5000009.391421  2000007.258584
  5000009.891421  2000007.258584  5000010.391421  2000007.258584
  5000010.891421  2000007.258584  5000011.391421  2000007.258584
  5000011.891421  2000007.258584  5000012.391421  2000007.258584
  5000012.891421  2000007.258584  5000013.391421  2000007.258584
  5000013.891421  2000007.258584  5000014.391421  2000007.258584
  5000014.891421  2000007.258584  5000015.391421  2000007.258584
  5000015.891421  2000007.258584  5000016.391421  2000007.258584
  5000016.891421  2000007.258584  5000017.391421  2000007.258584
  5000017.891421  2000007.258584  5000018.391421  2000007.258584
  5000018.891421  2000007.258584  5000019.391421  2000007.258584
  5000019.891421  2000007.258584  5000020.391421  2000007.258584
  5000020.891421  2000007.258584  5000021.391421  2000007.258584
  5000021.891421  2000007.258584  5000022.391421  2000007.258584
  5000022.891421  2000007.258584  5000023.391421  2000007.258584
  5000023.891421  2000007.258584  5000024.391421  2000007.258584
  5000024.891421  2000007.258584  5000025.391421  2000007.258584
  5000025.891421  2000007.258584  5000026.391421  2000007.258584
  5000026.891421  2000007.258584  5000027.391421  2000007.258584
  5000027.891421  2000007.258584  5000028.391421  2000007.258584
  5000028.891421  2000007.258584  5000029.391421  2000007.258584
  5000029.891421  2000007.258584  5000030.391421  2000007.258584
  5000030.891421  2000007.258584  5000031.391421  2000007.258584
  5000031.891421  2000007.258584  5000032.391421  2000007.258584
  5000032.891421  2000007.258584  5000033.391421  2000007.258584
  5000033.891421  2000007.258584  5000034.391421  2000007.258584
  5000034.891421  2000007.258584  5000035.391421  2000007.258584
  5000035.891421  2000007.258584  5000036.391421  2000007.258584
  5000036.891421  2000007.258584  5000037.391421  2000007.258584
  5000037.891421  2000007.258584  5000038.391421  2000007.258584
  5000038.891421  2000007.258584  5000039.391421  2000007.258584
  5000039.891421  2000007.258584  5000040.391421  2000007.258584
  5000040.891421  2000007.258584  5000041.391421  2000007.258584
  5000041.891421  2000007.258584  5000042.391421  2000007.258584
  5000042.891421  2000007.258584  5000043.391421  2000007.258584
  5000043.891421  2000007.258584  5000044.391421  2000007.258584
  5000044.891421  2000007.258584  5000045.391421  2000007.258584
  5000045.891421  2000007.258584  5000046.391421  2000007.258584
  5000046.891421  2000007.258584  5000047.391421  2000007.258584
  5000047.891421  2000007.258584  5000048.391421  2000007.258584
  5000048.891421  2000007.258584  5000049.391421  2000007.258584
  5000049.891421  2000007.258584  5000050.391421  2000007.258584
  5000050.891421  2000007.258584  5000051.391421  2000007.258584
  5000051.891421  2000007.258584  5000052.391421  2000007.258584
  5000052.891421  2000007.258584  5000053.391421  2000007.258584
  5000053.891421  2000007.258584  5000054.391421  2000007.258584
  5000054.891421  2000007.258584  5000055.391421  2000007.258584
  5000055.891421  2000007.258584  5000056.391421  2000007.258584
  5000056.891421  2000007.258584  5000057.391421  2000007.258584
  5000057.891421  2000007.258584  5000058.391421  2000007.258584
  5000058.891421  2000007.258584  5000059.391421  2000007.258584
  5000059.891421  2000007.258584  5000060.391421  2000007.258584
  5000060.891421  2000007.258584  5000061.391421  2000007.258584
  5000061.891421  2000007.258584  5000062.391421  2000007.258584
  5000062.891421  2000007.258584  5000063.391421  2000007.258584
  5000063.891421  2000007.258584  5000064.391421  2000007.258584
  5000064.891421  2000007.258584  5000065.391421  2000007.258584
  5000065.891421  2000007.258584  5000066.391421  2000007.258584
  5000066.891421  2000007.258584  5000067.391421  2000007.258584
  5000067.891421  2000007.258584  5000068.391421  2000007.258584
  5000068.891421  2000007.258584  5000069.391421  2000007.258584
  5000069.891421  2000007.258584  5000070.391421  2000007.258584
  5000070.891421  2000007.258584  5000071.391421  2000007.258584
  5000071.891421  2000007.258584  5000072.391421  2000007.258584
  5000072.891421  2000007.258584  5000073.391421  2000007.258584
  5000073.891421  2000007.258584  5000074.391421  2000007.258584
  5000074.891421  2000007.258584  5000075.391421  2000007.258584
  5000075.891421  2000007.258584  5000076.391421  2000007.258584
  5000076.891421  2000007.258584  5000077.391421  2000007.258584
  5000077.891421  2000007.258584  5000078.391421  2000007.258584
  5000078.891421  2000007.258584  5000079.391421  2000007.258584
  5000079.891421  2000007.258584  5000080.391421  2000007.258584
  5000080.891421  2000007.258584  5000081.391421  2000007.258584
  5000081.891421  2000007.258584  5000082.391421  2000007.258584
  5000082.891421  2000007.258584  5000083.391421  2000007.258584
  5000083.891421  2000007.258584  5000084.391421  2000007.258584
  5000084.891421  2000007.258584  5000085.391421  2000007.258584
  5000085.891421  2000007.258584  5000086.391421  2000007.258584
  5000086.891421  2000007.258584  5000087.391421  2000007.258584
  5000087.891421  2000007.258584  5000088.391421  2000007.258584
  5000088.891421  2000007.258584  5000089.391421  2000007.258584
  5000089.891421  2000007.258584  5000090.391421  2000007.258584
  5000090.891421  2000007.258584  5000091.391421  2000007.258584
  5000091.891421  2000007.258584  5000092.391421  2000007.258584
  5000092.891421  2000007.258584  5000093.391421  2000007.258584
  5000093.891421  2000007.258584  5000094.391421  2000007.258584
  5000094.891421  2000007.258584  5000095.391421  2000007.258584
  5000095.891421  2000007.258584  5000096.391421  2000007.258584
  5000096.891421  2000007.258584  5000097.391421  2000007.258584
  5000097.891421  2000007.258584  5000098.391421  2000007.258584
  5000098.891421  2000007.258584  5000099.391421  2000007.258584
  5000000.391421  2000006.758584  5000000.891421  2000006.758584
  5000001.391421  2000006.758584  5000001.891421  2000006.758584
  5000002.391421  2000006.758584  5000002.891421  2000006.758584
  5000003.391421  2000006.758584  5000003.891421  2000006.758584
  5000004.391421  2000006.758584  5000004.891421  2000006.758584
  5000005.391421  2000006.758584  5000005.891421  2000006.758584
  5000006.391421  2000006.758584  5000006.891421  2000006.758584
  5000007.391421  2000006.758584  5000007.891421  2000006.758584
  5000008.391421  2000006.758584  5000008.891421  2000006.758584
  5000009.391421  2000006.758584  5000009.891421  2000006.758584
  5000010.391421  2000006.758584  5000010.891421  2000006.758584
  5000011.391421  2000006.758584  5000011.891421  2000006.758584
  5000012.391421  2000006.758584  5000012.891421  2000006.758584
  5000013.391421  2000006.758584  5000013.891421  2000006.758584
  5000014.391421  2000006.758584  5000014.891421  2000006.758584
  5000015.391421  2000006.758584  5000015.891421  2000006.758584
  5000016.391421  2000006.758584  5000016.891421  2000006.758584
  5000017.391421  2000006.758584  5000017.891421  2000006.758584
  5000018.391421  2000006.758584  5000018.891421  2000006.758584
  5000019.391421  2000006.758584  5000019.891421  2000006.758584
  5000020.391421  2000006.758584  5000020.891421  2000006.758584
  5000021.391421  2000006.758584  5000021.891421  2000006.758584
  5000022.391421  2000006.758584  5000022.891421  2000006.758584
  5000023.391421  2000006.758584  5000023.891421  2000006.758584
  5000024.391421  2000006.758584  5000024.891421  2000006.758584
  5000025.391421  2000006.758584  5000025.891421  2000006.758584
  5000026.391421  2000006.758584  5000026.891421  2000006.758584
  5000027.391421  2000006.758584  5000027.891421  2000006.758584
  5000028.391421  2000006.758584  5000028.891421  2000006.758584
  5000029.391421  2000006.758584  5000029.891421  2000006.758584
  5000030.391421  2000006.758584  5000030.891421  2000006.758584
  5000031.391421  2000006.758584  5000031.891421  2000006.758584
  5000032.391421  2000006.758584  5000032.891421  2000006.758584
  5000033.391421  2000006.758584  5000033.891421  2000006.758584
  5000034.391421  2000006.758584  5000034.891421  2000006.758584
  5000035.391421  2000006.758584  5000035.891421  2000006.758584
  5000036.391421  2000006.758584  5000036.891421  2000006.758584
  5000037.391421  2000006.758584  5000037.891421  2000006.758584
  5000038.391421  2000006.758584  5000038.891421  2000006.758584
  5000039.391421  2000006.758584  5000039.891421  2000006.758584
  5000040.391421  2000006.758584  5000040.891421  2000006.758584
  5000041.391421  2000006.758584  5000041.891421  2000006.758584
  5000042.391421  2000006.758584  5000042.891421  2000006.758584
  5000043.391421  2000006.758584  5000043.891421  2000006.758584
  5000044.391421  2000006.758584  5000044.891421  2000006.758584
  5000045.391421  2000006.758584  5000045.891421  2000006.758584
  5000046.391421  2000006.758584  5000046.891421  2000006.758584
  5000047.391421  2000006.758584  5000047.891421  2000006.758584
  5000048.391421  2000006.758584  5000048.891421  2000006.758584
  5000049.391421  2000006.758584  5000049.891421  2000006.758584
  5000050.391421  2000006.758584  5000050.891421  2000006.758584
  5000051.391421  2000006.758584  5000051.891421  2000006.758584
  5000052.391421  2000006.758584  5000052.891421  2000006.758584
  5000053.391421  2000006.758584  5000053.891421  2000006.758584
  5000054.391421  2000006.758584  5000054.891421  2000006.758584
  5000055.391421  2000006.758584  5000055.891421  2000006.758584
  5000056.391421  2000006.758584  5000056.891421  2000006.758584
  5000057.391421  2000006.758584  5000057.891421  2000006.758584
  5000058.391421  2000006.758584  5000058.891421  2000006.758584
  5000059.391421  2000006.758584  5000059.891421  2000006.758584
  5000060.391421  2000006.758584  5000060.891421  2000006.758584
  5000061.391421  2000006.758584  5000061.891421  2000006.758584
  5000062.391421  2000006.758584  5000062.891421  2000006.758584
  5000063.391421  2000006.758584  5000063.891421  2000006.758584
  5000064.391421  2000006.758584  5000064.891421  2000006.758584
  5000065.391421  2000006.758584  5000065.891421  2000006.758584
  5000066.391421  2000006.758584  5000066.891421  2000006.758584
  5000067.391421  2000006.758584  5000067.891421  2000006.758584
  5000068.391421  2000006.758584  5000068.891421  2000006.758584
  5000069.391421  2000006.758584  5000069.891421  2000006.758584
  5000070.391421  2000006.758584  5000070.891421  2000006.758584
  5000071.391421  2000006.758584  5000071.891421  2000006.758584
  5000072.391421  2000006.758584  5000072.891421  2000006.758584
  5000073.391421  2000006.758584  5000073.891421  2000006.758584
  5000074.391421  2000006.758584  5000074.891421  2000006.758584
  5000075.391421  2000006.758584  5000075.891421  2000006.758584
  5000076.391421  2000006.758584  5000076.891421  2000006.758584
  5000077.391421  2000006.758584  5000077.891421  2000006.758584
  5000078.391421  2000006.758584  5000078.891421  2000006.758584
  5000079.391421  2000006.758584  5000079.891421  2000006.758584
  5000080.391421  2000006.758584  5000080.891421  2000006.758584
  5000081.391421  2000006.758584  5000081.891421  2000006.758584
  5000082.391421  2000006.758584  5000082.891421  2000006.758584
  5000083.391421  2000006.758584  5000083.891421  2000006.758584
  5000084.391421  2000006.758584  5000084.891421  2000006.758584
  5000085.391421  2000006.758584  5000085.891421  2000006.758584
  5000086.391421  2000006.758584  5000086.891421  2000006.758584
  5000087.391421  2000006.758584  5000087.891421  2000006.758584
  5000088.391421  2000006.758584  5000088.891421  2000006.758584
  5000089.391421  2000006.758584  5000089.891421  2000006.758584
  5000090.391421  2000006.758584  5000090.891421  2000006.758584
  5000091.391421  2000006.758584  5000091.891421  2000006.758584
  5000092.391421  2000006.758584  5000092.891421  2000006.758584
  5000093.391421  2000006.758584  5000093.891421  2000006.758584
  5000094.391421  2000006.758584  5000094.891421  2000006.758584
  5000095.391421  2000006.758584  5000095.891421  2000006.758584
  5000096.391421  2000006.758584  5000096.891421  2000006.758584
  5000097.391421  2000006.758584  5000097.891421  2000006.758584
  5000098.391421  2000006.758584  5000098.891421  2000006.758584
  5000099.391421  2000006.758584  5000000.391421  2000006.258584
  5000000.891421  2000006.258584  5000001.391421  2000006.258584
  5000001.891421  2000006.258584  5000002.391421  2000006.258584
  5000002.891421  2000006.258584  5000003.391421  2000006.258584
  5000003.891421  2000006.258584  5000004.391421  2000006.258584
  5000004.891421  2000006.258584  5000005.391421  2000006.258584
  5000005.891421  2000006.258584  5000006.391421  2000006.258584
  5000006.891421  2000006.258584  5000007.391421  2000006.258584
  5000007.891421  2000006.258584  5000008.391421  2000006.258584
  5000008.891421  2000006.258584  5000009.391421  2000006.258584
  5000009.891421  2000006.258584  5000010.391421  2000006.258584
  5000010.891421  2000006.258584  5000011.391421  2000006.258584
  5000011.891421  2000006.258584  5000012.391421  2000006.258584
  5000012.891421  2000006.258584  5000013.391421  2000006.258584
  5000013.891421  2000006.258584  5000014.391421  2000006.258584
  5000014.891421  2000006.258584  5000015.391421  2000006.258584
  5000015.891421  2000006.258584  5000016.391421  2000006.258584
  5000016.891421  2000006.258584  5000017.391421  2000006.258584
  5000017.891421  2000006.258584  5000018.391421  2000006.258584
  5000018.891421  2000006.258584  5000019.391421  2000006.258584
  5000019.891421  2000006.258584  5000020.391421  2000006.258584
  5000020.891421  2000006.258584  5000021.391421  2000006.258584
  5000021.891421  2000006.258584  5000022.391421  2000006.258584
  5000022.891421  2000006.258584  5000023.391421  2000006.258584
  5000023.891421  2000006.258584  5000024.391421  2000006.258584
  5000024.891421  2000006.258584  5000025.391421  2000006.258584
  5000025.891421  2000006.258584  5000026.391421  2000006.258584
  5000026.891421  2000006.258584  5000027.391421  2000006.258584
  5000027.891421  2000006.258584  5000028.391421  2000006.258584
  5000028.891421  2000006.258584  5000029.391421  2000006.258584
  5000029.891421  2000006.258584  5000030.391421  2000006.258584
  5000030.891421  2000006.258584  5000031.391421  2000006.258584
  5000031.891421  2000006.258584  5000032.391421  2000006.258584
  5000032.891421  2000006.258584  5000033.391421  2000006.258584
  5000033.891421  2000006.258584  5000034.391421  2000006.258584
  5000034.891421  2000006.258584  5000035.391421  2000006.258584
  5000035.891421  2000006.258584  5000036.391421  2000006.258584
  5000036.891421  2000006.258584  5000037.391421  2000006.258584
  5000037.891421  2000006.258584  5000038.391421  2000006.258584
  5000038.891421  2000006.258584  5000039.391421  2000006.258584
  5000039.891421  2000006.258584  5000040.391421  2000006.258584
  5000040.891421  2000006.258584  5000041.391421  2000006.258584
  5000041.891421  2000006.258584  5000042.391421  2000006.258584
  5000042.891421  2000006.258584  5000043.391421  2000006.258584
  5000043.891421  2000006.258584  5000044.391421  2000006.258584
  5000044.891421  2000006.258584  5000045.391421  2000006.258584
  5000045.891421  2000006.258584  5000046.391421  2000006.258584
  5000046.891421  2000006.258584  5000047.391421  2000006.258584
  5000047.891421  2000006.258584  5000048.391421  2000006.258584
  5000048.891421  2000006.258584  5000049.391421  2000006.258584
  5000049.891421  2000006.258584  5000050.391421  2000006.258584
  5000050.891421  2000006.258584  5000051.391421  2000006.258584
  5000051.891421  2000006.258584  5000052.391421  2000006.258584
  5000052.891421  2000006.258584  5000053.391421  2000006.258584
  5000053.891421  2000006.258584  5000054.391421  2000006.258584
  5000054.891421  2000006.258584  5000055.391421  2000006.258584
  5000055.891421  2000006.258584  5000056.391421  2000006.258584
  5000056.891421  2000006.258584  5000057.391421  2000006.258584
  5000057.891421  2000006.258584  5000058.391421  2000006.258584
  5000058.891421  2000006.258584  5000059.391421  2000006.258584
  5000059.891421  2000006.258584  5000060.391421  2000006.258584
  5000060.891421  2000006.258584  5000061.391421  2000006.258584
  5000061.891421  2000006.258584  5000062.391421  2000006.258584
  5000062.891421  2000006.258584  5000063.391421  2000006.258584
  5000063.891421  2000006.258584  5000064.391421  2000006.258584
  5000064.891421  2000006.258584  5000065.391421  2000006.258584
  5000065.891421  2000006.258584  5000066.391421  2000006.258584
  5000066.891421  2000006.258584  5000067.391421  2000006.258584
  5000067.891421  2000006.258584  5000068.391421  2000006.258584
  5000068.891421  2000006.258584  5000069.391421  2000006.258584
  5000069.891421  2000006.258584  5000070.391421  2000006.258584
  5000070.891421  2000006.258584  5000071.391421  2000006.258584
  5000071.891421  2000006.258584  5000072.391421  2000006.258584
  5000072.891421  2000006.258584  5000073.391421  2000006.258584
  5000073.891421  2000006.258584  5000074.391421  2000006.258584
  5000074.891421  2000006.258584  5000075.391421  2000006.258584
  5000075.891421  2000006.258584  5000076.391421  2000006.258584
  5000076.891421  2000006.258584  5000077.391421  2000006.258584
  5000077.891421  2000006.258584  5000078.391421  2000006.258584
  5000078.891421  2000006.258584  5000079.391421  2000006.258584
  5000079.891421  2000006.258584  5000080.391421  2000006.258584
  5000080.891421  2000006.258584  5000081.391421  2000006.258584
  5000081.891421  2000006.258584  5000082.391421  2000006.258584
  5000082.891421  2000006.258584  5000083.391421  2000006.258584
  5000083.891421  2000006.258584  5000084.391421  2000006.258584
  5000084.891421  2000006.258584  5000085.391421  2000006.258584
  5000085.891421  2000006.258584  5000086.391421  2000006.258584
  5000086.891421  2000006.258584  5000087.391421  2000006.258584
  5000087.891421  2000006.258584  5000088.391421  2000006.258584
  5000088.891421  2000006.258584  5000089.391421  2000006.258584
  5000089.891421  2000006.258584  5000090.391421  2000006.258584
  5000090.891421  2000006.258584  5000091.391421  2000006.258584
  5000091.891421  2000006.258584  5000092.391421  2000006.258584
  5000092.891421  2000006.258584  5000093.391421  2000006.258584
  5000093.891421  2000006.258584  5000094.391421  2000006.258584
  5000094.891421  2000006.258584  5000095.391421  2000006.258584
  5000095.891421  2000006.258584  5000096.391421  2000006.258584
  5000096.891421  2000006.258584  5000097.391421  2000006.258584
  5000097.891421  2000006.258584  5000098.391421  2000006.258584
  5000098.891421  2000006.258584  5000099.391421  2000006.258584
  5000000.391421  2000004.758584  5000000.891421  2000004.758584
  5000001.391421  2000004.758584  5000001.891421  2000004.758584
  5000002.391421  2000004.758584  5000002.891421  2000004.758584
  5000003.391421  2000004.758584  5000003.891421  2000004.758584
  5000004.391421  2000004.758584  5000004.891421  2000004.758584
  5000005.391421  2000004.758584  5000005.891421  2000004.758584
  5000006.391421  2000004.758584  5000006.891421  2000004.758584
  5000007.391421  2000004.758584  5000007.891421  2000004.758584
  5000008.391421  2000004.758584  5000008.891421  2000004.758584
  5000009.391421  2000004.758584  5000009.891421  2000004.758584
  5000010.391421  2000004.758584  5000010.891421  2000004.758584
  5000011.391421  2000004.758584  5000011.891421  2000004.758584
  5000012.391421  2000004.758584  5000012.891421  2000004.758584
  5000013.391421  2000004.758584  5000013.891421  2000004.758584
  5000014.391421  2000004.758584  5000014.891421  2000004.758584
  5000015.391421  2000004.758584  5000015.891421  2000004.758584
  5000016.391421  2000004.758584  5000016.891421  2000004.758584
  5000017.391421  2000004.758584  5000017.891421  2000004.758584
  5000018.391421  2000004.758584  5000018.891421  2000004.758584
  5000019.391421  2000004.758584  5000019.891421  2000004.758584
  5000020.391421  2000004.758584  5000020.891421  2000004.758584
  5000021.391421  2000004.758584  5000021.891421  2000004.758584
  5000022.391421  2000004.758584  5000022.891421  2000004.758584
  5000023.391421  2000004.758584  5000023.891421  2000004.758584
  5000024.391421  2000004.758584  5000024.891421  2000004.758584
  5000025.391421  2000004.758584  5000025.891421  2000004.758584
  5000026.391421  2000004.758584  5000026.891421  2000004.758584
  5000027.391421  2000004.758584  5000027.891421  2000004.758584
  5000028.391421  2000004.758584  5000028.891421  2000004.758584
  5000029.391421  2000004.758584  5000029.891421  2000004.758584
  5000030.391421  2000004.758584  5000030.891421  2000004.758584
  5000031.391421  2000004.758584  5000031.891421  2000004.758584
  5000032.391421  2000004.758584  5000032.891421  2000004.758584
  5000033.391421  2000004.758584  5000033.891421  2000004.758584
  5000034.391421  2000004.758584  5000034.891421  2000004.758584
  5000035.391421  2000004.758584  5000035.891421  2000004.758584
  5000036.391421  2000004.758584  5000036.891421  2000004.758584
  5000037.391421  2000004.758584  5000037.891421  2000004.758584
  5000038.391421  2000004.758584  5000038.891421  2000004.758584
  5000039.391421  2000004.758584  5000039.891421  2000004.758584
  5000040.391421  2000004.758584  5000040.891421  2000004.758584
  5000041.391421  2000004.758584  5000041.891421  2000004.758584
  5000042.391421  2000004.758584  5000042.891421  2000004.758584
  5000043.391421  2000004.758584  5000043.891421  2000004.758584
  5000044.391421  2000004.758584  5000044.891421  2000004.758584
  5000045.391421  2000004.758584  5000045.891421  2000004.758584
  5000046.391421  2000004.758584  5000046.891421  2000004.758584
  5000047.391421  2000004.758584  5000047.891421  2000004.758584
  5000048.391421  2000004.758584  5000048.891421  2000004.758584
  5000049.391421  2000004.758584  5000049.891421  2000004.758584
  5000050.391421  2000004.758584  5000050.891421  2000004.758584
  5000051.391421  2000004.758584  5000051.891421  2000004.758584
  5000052.391421  2000004.758584  5000052.891421  2000004.758584
  5000053.391421  2000004.758584  5000053.891421  2000004.758584