Geom Title=Geometry1D
Program Version=6.70
Viewing Rectangle= 4999999 , 5000101 , 2000008.31 , 1999991.69 

River Reach=River           ,Reach           
Reach XY= 2 
        5000100.        2000000.        5000000.        2000000.
Rch Text X Y=5000075,2000000
Reverse River Text=-1 

Type RM Length L Ch R = 1 ,100     ,0.5,0.5,0.5
Node Last Edited Time=Dec/07/2025 10:50:47
#Sta/Elev= 6 
       02601.5562.7166682601.5565.650005 2600.0910.65001 2600.0913.583342601.556
16.300012601.556
#Mann= 3 ,0,0
       0    .035       02.716668    .035       013.58334    .035       0
Bank Sta=2.716668,13.58334
XS Rating Curve= 0 ,0
XS HTab Starting El and Incr=2600.15,0.07, 20 
XS HTab Horizontal Distribution= 5 , 5 , 5 
Exp/Cntr=0.3,0.1

Type RM Length L Ch R = 1 ,99.500* ,0.5,0.5,0.5
Node Last Edited Time=Dec/07/2025 16:49:26
#Sta/Elev= 6 
       02601.555   2.7172601.555    5.65 2600.09   10.65 2600.09  13.5832601.555
    16.32601.555
#Mann= 3 ,0,0
       0    .035       0   2.717    .035       0  13.583    .035       0
Bank Sta=2.717,13.583
XS Rating Curve= 0 ,0
XS HTab Starting El and Incr=2600.15,0.07, 20 
XS HTab Horizontal Distribution= 5 , 5 , 5 
Exp/Cntr=0.3,0.1

Type RM Length L Ch R = 1 ,99.000* ,0.5,0.5,0.5
Node Last Edited Time=Dec/07/2025 16:49:26
#Sta/Elev= 6 
       02601.555   2.7172601.555    5.652600.089   10.652600.089  13.5832601.555
    16.32601.555
#Mann= 3 ,0,0
       0    .035       0   2.717    .035       0  13.583    .035       0
Bank Sta=2.717,13.583
XS Rating Curve= 0 ,0
XS HTab Starting El and Incr=2600.15,0.07, 20 
XS HTab Horizontal Distribution= 5 , 5 , 5 
Exp/Cntr=0.3,0.1

Type RM Length L Ch R = 1 ,98.500* ,0.5,0.5,0.5
Node Last Edited Time=Dec/07/2025 16:49:26
#Sta/Elev= 6 
       02601.555   2.7172601.555    5.652600.089   10.652600.089  13.5832601.555
    16.32601.555
#Mann= 3 ,0,0
       0    .035       0   2.717    .035       0  13.583    .035       0
Bank Sta=2.717,13.583
XS Rating Curve= 0 ,0
XS HTab Starting El and Incr=2600.15,0.07, 20 
XS HTab Horizontal Distribution= 5 , 5 , 5 
Exp/Cntr=0.3,0.1

Type RM Length L Ch R = 1 ,98.000* ,0.5,0.5,0.5
Node Last Edited Time=Dec/07/2025 16:49:26
#Sta/Elev= 6 
       02601.554   2.7172601.554    5.652600.088   10.652600.088  13.5832601.554
    16.32601.554
#Mann= 3 ,0,0
       0    .035       0   2.717    .035       0  13.583    .035       0
Bank Sta=2.717,13.583
XS Rating Curve= 0 ,0
XS HTab Starting El and Incr=2600.15,0.07, 20 
XS HTab Horizontal Distribution= 5 , 5 , 5 
Exp/Cntr=0.3,0.1

Type RM Length L Ch R = 1 ,97.500* ,0.5,0.5,0.5
Node Last Edited Time=Dec/07/2025 16:49:26
#Sta/Elev= 6 
       02601.554   2.7172601.554    5.652600.088   10.652600.088  13.5832601.554
    16.32601.554
#Mann= 3 ,0,0
       0    .035       0   2.717    .035       0  13.583    .035       0
Bank Sta=2.717,13.583
XS Rating Curve= 0 ,0
XS HTab Starting El and Incr=2600.15,0.07, 20 
XS HTab Horizontal Distribution= 5 , 5 , 5 
Exp/Cntr=0.3,0.1

Type RM Length L Ch R = 1 ,97.000* ,0.5,0.5,0.5
Node Last Edited Time=Dec/07/2025 16:49:26
#Sta/Elev= 6 
       02601.553   2.7172601.553    5.652600.087   10.652600.087  13.5832601.553
    16.32601.553
#Mann= 3 ,0,0
       0    .035       0   2.717    .035       0  13.583    .035       0
Bank Sta=2.717,13.583
XS Rating Curve= 0 ,0
XS HTab Starting El and Incr=2600.15,0.07, 20 
XS HTab Horizontal Distribution= 5 , 5 , 5 
Exp/Cntr=0.3,0.1

Type RM Length L Ch R = 1 ,96.500* ,0.5,0.5,0.5
Node Last Edited Time=Dec/07/2025 16:49:26
#Sta/Elev= 6 
       02601.553   2.7172601.553    5.652600.087   10.652600.087  13.5832601.553
    16.32601.553
#Mann= 3 ,0,0
       0    .035       0   2.717    .035       0  13.583    .035       0
Bank Sta=2.717,13.583
XS Rating Curve= 0 ,0
XS HTab Starting El and Incr=2600.15,0.07, 20 
XS HTab Horizontal Distribution= 5 , 5 , 5 
Exp/Cntr=0.3,0.1

Type RM Length L Ch R = 1 ,96.000* ,0.5,0.5,0.5
Node Last Edited Time=Dec/07/2025 16:49:26
#Sta/Elev= 6 
       02601.552   2.7172601.552    5.652600.086   10.652600.086  13.5832601.552
    16.32601.552
#Mann= 3 ,0,0
       0    .035       0   2.717    .035       0  13.583    .035       0
Bank Sta=2.717,13.583
XS Rating Curve= 0 ,0
XS HTab Starting El and Incr=2600.15,0.07, 20 
XS HTab Horizontal Distribution= 5 , 5 , 5 
Exp/Cntr=0.3,0.1

Type RM Length L Ch R = 1 ,95.500* ,0.5,0.5,0.5
Node Last Edited Time=Dec/07/2025 16:49:26
#Sta/Elev= 6 
       02601.552   2.7172601.552    5.652600.086   10.652600.086  13.5832601.552
    16.32601.552
#Mann= 3 ,0,0
       0    .035       0   2.717    .035       0  13.583    .035       0
Bank Sta=2.717,13.583
XS Rating Curve= 0 ,0
XS HTab Starting El and Incr=2600.15,0.07, 20 
XS HTab Horizontal Distribution= 5 , 5 , 5 
Exp/Cntr=0.3,0.1

Type RM Length L Ch R = 1 ,95.000* ,0.5,0.5,0.5
Node Last Edited Time=Dec/07/2025 16:49:26
#Sta/Elev= 6 
       02601.552   2.7172601.552    5.652600.086   10.652600.086  13.5832601.552
    16.32601.552
#Mann= 3 ,0,0
       0    .035       0   2.717    .035       0  13.583    .035       0
Bank Sta=2.717,13.583
XS Rating Curve= 0 ,0
XS HTab Starting El and Incr=2600.15,0.07, 20 
XS HTab Horizontal Distribution= 5 , 5 , 5 
Exp/Cntr=0.3,0.1

Type RM Length L Ch R = 1 ,94.500* ,0.5,0.5,0.5
Node Last Edited Time=Dec/07/2025 16:49:26
#Sta/Elev= 6 
       02601.551   2.7172601.551    5.652600.085   10.652600.085  13.5832601.551
    16.32601.551
#Mann= 3 ,0,0
       0    .035       0   2.717    .035       0  13.583    .035       0
Bank Sta=2.717,13.583
XS Rating Curve= 0 ,0
XS HTab Starting El and Incr=2600.15,0.07, 20 
XS HTab Horizontal Distribution= 5 , 5 , 5 
Exp/Cntr=0.3,0.1

Type RM Length L Ch R = 1 ,94.000* ,0.5,0.5,0.5
Node Last Edited Time=Dec/07/2025 16:49:26
#Sta/Elev= 6 
       02601.551   2.7172601.551    5.652600.085   10.652600.085  13.5832601.551
    16.32601.551
#Mann= 3 ,0,0
       0    .035       0   2.717    .035       0  13.583    .035       0
Bank Sta=2.717,13.583
XS Rating Curve= 0 ,0
XS HTab Starting El and Incr=2600.14,0.07, 20 
XS HTab Horizontal Distribution= 5 , 5 , 5 
Exp/Cntr=0.3,0.1

Type RM Length L Ch R = 1 ,93.500* ,0.5,0.5,0.5
Node Last Edited Time=Dec/07/2025 16:49:26
#Sta/Elev= 6 
       0 2601.55   2.717 2601.55    5.652600.084   10.652600.084  13.583 2601.55
    16.3 2601.55
#Mann= 3 ,0,0
       0    .035       0   2.717    .035       0  13.583    .035       0
Bank Sta=2.717,13.583
XS Rating Curve= 0 ,0
XS HTab Starting El and Incr=2600.14,0.07, 20 
XS HTab Horizontal Distribution= 5 , 5 , 5 
Exp/Cntr=0.3,0.1

Type RM Length L Ch R = 1 ,93.000* ,0.5,0.5,0.5
Node Last Edited Time=Dec/07/2025 16:49:26
#Sta/Elev= 6 
       0 2601.55   2.717 2601.55    5.652600.084   10.652600.084  13.583 2601.55
    16.3 2601.55
#Mann= 3 ,0,0
       0    .035       0   2.717    .035       0  13.583    .035       0
Bank Sta=2.717,13.583
XS Rating Curve= 0 ,0
XS HTab Starting El and Incr=2600.14,0.07, 20 
XS HTab Horizontal Distribution= 5 , 5 , 5 
Exp/Cntr=0.3,0.1

Type RM Length L Ch R = 1 ,92.500* ,0.5,0.5,0.5
Node Last Edited Time=Dec/07/2025 16:49:26
#Sta/Elev= 6 
       02601.549   2.7172601.549    5.652600.083   10.652600.083  13.5832601.549
    16.32601.549
#Mann= 3 ,0,0
       0    .035       0   2.717    .035       0  13.583    .035       0
Bank Sta=2.717,13.583
XS Rating Curve= 0 ,0
XS HTab Starting El and Incr=2600.14,0.07, 20 
XS HTab Horizontal Distribution= 5 , 5 , 5 
Exp/Cntr=0.3,0.1

Type RM Length L Ch R = 1 ,92.000* ,0.5,0.5,0.5
Node Last Edited Time=Dec/07/2025 16:49:26
#Sta/Elev= 6 
       02601.549   2.7172601.549    5.652600.083   10.652600.083  13.5832601.549
    16.32601.549
#Mann= 3 ,0,0
       0    .035       0   2.717    .035       0  13.583    .035       0
Bank Sta=2.717,13.583
XS Rating Curve= 0 ,0
XS HTab Starting El and Incr=2600.14,0.07, 20 
XS HTab Horizontal Distribution= 5 , 5 , 5 
Exp/Cntr=0.3,0.1

Type RM Length L Ch R = 1 ,91.500* ,0.5,0.5,0.5
Node Last Edited Time=Dec/07/2025 16:49:26
#Sta/Elev= 6 
       02601.548   2.7172601.548    5.652600.083   10.652600.083  13.5832601.548
    16.32601.548
#Mann= 3 ,0,0
       0    .035       0   2.717    .035       0  13.583    .035       0
Bank Sta=2.717,13.583
XS Rating Curve= 0 ,0
XS HTab Starting El and Incr=2600.14,0.07, 20 
XS HTab Horizontal Distribution= 5 , 5 , 5 
Exp/Cntr=0.3,0.1

Type RM Length L Ch R = 1 ,91.000* ,0.5,0.5,0.5
Node Last Edited Time=Dec/07/2025 16:49:26
#Sta/Elev= 6 
       02601.548   2.7172601.548    5.652600.082   10.652600.082  13.5832601.548
    16.32601.548
#Mann= 3 ,0,0
       0    .035       0   2.717    .035       0  13.583    .035       0
Bank Sta=2.717,13.583
XS Rating Curve= 0 ,0
XS HTab Starting El and Incr=2600.14,0.07, 20 
XS HTab Horizontal Distribution= 5 , 5 , 5 
Exp/Cntr=0.3,0.1

Type RM Length L Ch R = 1 ,90.500* ,0.5,0.5,0.5
Node Last Edited Time=Dec/07/2025 16:49:26
#Sta/Elev= 6 
       02601.547   2.7172601.547    5.652600.082   10.652600.082  13.5832601.547
    16.32601.547
#Mann= 3 ,0,0
       0    .035       0   2.717    .035       0  13.583    .035       0
Bank Sta=2.717,13.583
XS Rating Curve= 0 ,0
XS HTab Starting El and Incr=2600.14,0.07, 20 
XS HTab Horizontal Distribution= 5 , 5 , 5 
Exp/Cntr=0.3,0.1

Type RM Length L Ch R = 1 ,90.000* ,0.5,0.5,0.5
Node Last Edited Time=Dec/07/2025 16:49:26
#Sta/Elev= 6 
       02601.547   2.7172601.547    5.652600.081   10.652600.081  13.5832601.547
    16.32601.547
#Mann= 3 ,0,0
       0    .035       0   2.717    .035       0  13.583    .035       0
Bank Sta=2.717,13.583
XS Rating Curve= 0 ,0
XS HTab Starting El and Incr=2600.14,0.07, 20 
XS HTab Horizontal Distribution= 5 , 5 , 5 
Exp/Cntr=0.3,0.1

Type RM Length L Ch R = 1 ,89.500* ,0.5,0.5,0.5
Node Last Edited Time=Dec/07/2025 16:49:26
#Sta/Elev= 6 
       02601.547   2.7172601.547    5.652600.081   10.652600.081  13.5832601.547
    16.32601.547
#Mann= 3 ,0,0
       0    .035       0   2.717    .035       0  13.583    .035       0
Bank Sta=2.717,13.583
XS Rating Curve= 0 ,0
XS HTab Starting El and Incr=2600.14,0.07, 20 
XS HTab Horizontal Distribution= 5 , 5 , 5 
Exp/Cntr=0.3,0.1

Type RM Length L Ch R = 1 ,89.000* ,0.5,0.5,0.5
Node Last Edited Time=Dec/07/2025 16:49:26
#Sta/Elev= 6 
       02601.546   2.7172601.546    5.65 2600.08   10.65 2600.08  13.5832601.546
    16.32601.546
#Mann= 3 ,0,0
       0    .035       0   2.717    .035       0  13.583    .035       0
Bank Sta=2.717,13.583
XS Rating Curve= 0 ,0
XS HTab Starting El and Incr=2600.14,0.07, 20 
XS HTab Horizontal Distribution= 5 , 5 , 5 
Exp/Cntr=0.3,0.1

Type RM Length L Ch R = 1 ,88.500* ,0.5,0.5,0.5
Node Last Edited Time=Dec/07/2025 16:49:26
#Sta/Elev= 6 
       02601.546   2.7172601.546    5.65 2600.08   10.65 2600.08  13.5832601.546
    16.32601.546
#Mann= 3 ,0,0
       0    .035       0   2.717    .035       0  13.583    .035       0
Bank Sta=2.717,13.583
XS Rating Curve= 0 ,0
XS HTab Starting El and Incr=2600.14,0.07, 20 
XS HTab Horizontal Distribution= 5 , 5 , 5 
Exp/Cntr=0.3,0.1

Type RM Length L Ch R = 1 ,88.000* ,0.5,0.5,0.5
Node Last Edited Time=Dec/07/2025 16:49:26
#Sta/Elev= 6 
       02601.545   2.7172601.545    5.652600.079   10.652600.079  13.5832601.545
    16.32601.545
#Mann= 3 ,0,0
       0    .035       0   2.717    .035       0  13.583    .035       0
Bank Sta=2.717,13.583
XS Rating Curve= 0 ,0
XS HTab Starting El and Incr=2600.14,0.07, 20 
XS HTab Horizontal Distribution= 5 , 5 , 5 
Exp/Cntr=0.3,0.1

Type RM Length L Ch R = 1 ,87.500* ,0.5,0.5,0.5
Node Last Edited Time=Dec/07/2025 16:49:26
#Sta/Elev= 6 
       02601.545   2.7172601.545    5.652600.079   10.652600.079  13.5832601.545
    16.32601.545
#Mann= 3 ,0,0
       0    .035       0   2.717    .035       0  13.583    .035       0
Bank Sta=2.717,13.583
XS Rating Curve= 0 ,0
XS HTab Starting El and Incr=2600.14,0.07, 20 
XS HTab Horizontal Distribution= 5 , 5 , 5 
Exp/Cntr=0.3,0.1

Type RM Length L Ch R = 1 ,87.000* ,0.5,0.5,0.5
Node Last Edited Time=Dec/07/2025 16:49:26
#Sta/Elev= 6 
       02601.544   2.7172601.544    5.652600.078   10.652600.078  13.5832601.544
    16.32601.544
#Mann= 3 ,0,0
       0    .035       0   2.717    .035       0  13.583    .035       0
Bank Sta=2.717,13.583
XS Rating Curve= 0 ,0
XS HTab Starting El and Incr=2600.14,0.07, 20 
XS HTab Horizontal Distribution= 5 , 5 , 5 
Exp/Cntr=0.3,0.1

Type RM Length L Ch R = 1 ,86.500* ,0.5,0.5,0.5
Node Last Edited Time=Dec/07/2025 16:49:26
#Sta/Elev= 6 
       02601.544   2.7172601.544    5.652600.078   10.652600.078  13.5832601.544
    16.32601.544
#Mann= 3 ,0,0
       0    .035       0   2.717    .035       0  13.583    .035       0
Bank Sta=2.717,13.583
XS Rating Curve= 0 ,0
XS HTab Starting El and Incr=2600.14,0.07, 20 
XS HTab Horizontal Distribution= 5 , 5 , 5 
Exp/Cntr=0.3,0.1

Type RM Length L Ch R = 1 ,86.000* ,0.5,0.5,0.5
Node Last Edited Time=Dec/07/2025 16:49:26
#Sta/Elev= 6 
       02601.543   2.7172601.543    5.652600.077   10.652600.077  13.5832601.543
    16.32601.543
#Mann= 3 ,0,0
       0    .035       0   2.717    .035       0  13.583    .035       0
Bank Sta=2.717,13.583
XS Rating Curve= 0 ,0
XS HTab Starting El and Incr=2600.14,0.07, 20 
XS HTab Horizontal Distribution= 5 , 5 , 5 
Exp/Cntr=0.3,0.1

Type RM Length L Ch R = 1 ,85.500* ,0.5,0.5,0.5
Node Last Edited Time=Dec/07/2025 16:49:26
#Sta/Elev= 6 
       02601.543   2.7172601.543    5.652600.077   10.652600.077  13.5832601.543
    16.32601.543
#Mann= 3 ,0,0
       0    .035       0   2.717    .035       0  13.583    .035       0
Bank Sta=2.717,13.583
XS Rating Curve= 0 ,0
XS HTab Starting El and Incr=2600.14,0.07, 20 
XS HTab Horizontal Distribution= 5 , 5 , 5 
Exp/Cntr=0.3,0.1

Type RM Length L Ch R = 1 ,85.000* ,0.5,0.5,0.5
Node Last Edited Time=Dec/07/2025 16:49:26
#Sta/Elev= 6 
       02601.542   2.7172601.542    5.652600.077   10.652600.077  13.5832601.542
    16.32601.542
#Mann= 3 ,0,0
       0    .035       0   2.717    .035       0  13.583    .035       0
Bank Sta=2.717,13.583
XS Rating Curve= 0 ,0
XS HTab Starting El and Incr=2600.14,0.07, 20 
XS HTab Horizontal Distribution= 5 , 5 , 5 
Exp/Cntr=0.3,0.1

Type RM Length L Ch R = 1 ,84.500* ,0.5,0.5,0.5
Node Last Edited Time=Dec/07/2025 16:49:26
#Sta/Elev= 6 
       02601.542   2.7172601.542    5.652600.076   10.652600.076  13.5832601.542
    16.32601.542
#Mann= 3 ,0,0
       0    .035       0   2.717    .035       0  13.583    .035       0
Bank Sta=2.717,13.583
XS Rating Curve= 0 ,0
XS HTab Starting El and Incr=2600.14,0.07, 20 
XS HTab Horizontal Distribution= 5 , 5 , 5 
Exp/Cntr=0.3,0.1

Type RM Length L Ch R = 1 ,84.000* ,0.5,0.5,0.5
Node Last Edited Time=Dec/07/2025 16:49:26
#Sta/Elev= 6 
       02601.542   2.7172601.542    5.652600.076   10.652600.076  13.5832601.542
    16.32601.542
#Mann= 3 ,0,0
       0    .035       0   2.717    .035       0  13.583    .035       0
Bank Sta=2.717,13.583
XS Rating Curve= 0 ,0
XS HTab Starting El and Incr=2600.14,0.07, 20 
XS HTab Horizontal Distribution= 5 , 5 , 5 
Exp/Cntr=0.3,0.1

Type RM Length L Ch R = 1 ,83.500* ,0.5,0.5,0.5
Node Last Edited Time=Dec/07/2025 16:49:26
#Sta/Elev= 6 
       02601.541   2.7172601.541    5.652600.075   10.652600.075  13.5832601.541
    16.32601.541
#Mann= 3 ,0,0
       0    .035       0   2.717    .035       0  13.583    .035       0
Bank Sta=2.717,13.583
XS Rating Curve= 0 ,0
XS HTab Starting El and Incr=2600.14,0.07, 20 
XS HTab Horizontal Distribution= 5 , 5 , 5 
Exp/Cntr=0.3,0.1

Type RM Length L Ch R = 1 ,83.000* ,0.5,0.5,0.5
Node Last Edited Time=Dec/07/2025 16:49:26
#Sta/Elev= 6 
       02601.541   2.7172601.541    5.652600.075   10.652600.075  13.5832601.541
    16.32601.541
#Mann= 3 ,0,0
       0    .035       0   2.717    .035       0  13.583    .035       0
Bank Sta=2.717,13.583
XS Rating Curve= 0 ,0
XS HTab Starting El and Incr=2600.13,0.07, 20 
XS HTab Horizontal Distribution= 5 , 5 , 5 
Exp/Cntr=0.3,0.1

Type RM Length L Ch R = 1 ,82.500* ,0.5,0.5,0.5
Node Last Edited Time=Dec/07/2025 16:49:26
#Sta/Elev= 6 
       0 2601.54   2.717 2601.54    5.652600.074   10.652600.074  13.583 2601.54
    16.3 2601.54
#Mann= 3 ,0,0
       0    .035       0   2.717    .035       0  13.583    .035       0
Bank Sta=2.717,13.583
XS Rating Curve= 0 ,0
XS HTab Starting El and Incr=2600.13,0.07, 20 
XS HTab Horizontal Distribution= 5 , 5 , 5 
Exp/Cntr=0.3,0.1

Type RM Length L Ch R = 1 ,82.000* ,0.5,0.5,0.5
Node Last Edited Time=Dec/07/2025 16:49:26
#Sta/Elev= 6 
       0 2601.54   2.717 2601.54    5.652600.074   10.652600.074  13.583 2601.54
    16.3 2601.54
#Mann= 3 ,0,0
       0    .035       0   2.717    .035       0  13.583    .035       0
Bank Sta=2.717,13.583
XS Rating Curve= 0 ,0
XS HTab Starting El and Incr=2600.13,0.07, 20 
XS HTab Horizontal Distribution= 5 , 5 , 5 
Exp/Cntr=0.3,0.1

Type RM Length L Ch R = 1 ,81.500* ,0.5,0.5,0.5
Node Last Edited Time=Dec/07/2025 16:49:26
#Sta/Elev= 6 
       0 2601.54   2.717 2601.54    5.652600.073   10.652600.073  13.583 2601.54
    16.3 2601.54
#Mann= 3 ,0,0
       0    .035       0   2.717    .035       0  13.583    .035       0
Bank Sta=2.717,13.583
XS Rating Curve= 0 ,0
XS HTab Starting El and Incr=2600.13,0.07, 20 
XS HTab Horizontal Distribution= 5 , 5 , 5 
Exp/Cntr=0.3,0.1

Type RM Length L Ch R = 1 ,81.000* ,0.5,0.5,0.5
Node Last Edited Time=Dec/07/2025 16:49:26
#Sta/Elev= 6 
       02601.539   2.7172601.539    5.652600.073   10.652600.073  13.5832601.539
    16.32601.539
#Mann= 3 ,0,0
       0    .035       0   2.717    .035       0  13.583    .035       0
Bank Sta=2.717,13.583
XS Rating Curve= 0 ,0
XS HTab Starting El and Incr=2600.13,0.07, 20 
XS HTab Horizontal Distribution= 5 , 5 , 5 
Exp/Cntr=0.3,0.1

Type RM Length L Ch R = 1 ,80.500* ,0.5,0.5,0.5
Node Last Edited Time=Dec/07/2025 16:49:26
#Sta/Elev= 6 
       02601.539   2.7172601.539    5.652600.073   10.652600.073  13.5832601.539
    16.32601.539
#Mann= 3 ,0,0
       0    .035       0   2.717    .035       0  13.583    .035       0
Bank Sta=2.717,13.583
XS Rating Curve= 0 ,0
XS HTab Starting El and Incr=2600.13,0.07, 20 
XS HTab Horizontal Distribution= 5 , 5 , 5 
Exp/Cntr=0.3,0.1

Type RM Length L Ch R = 1 ,80.000* ,0.5,0.5,0.5
Node Last Edited Time=Dec/07/2025 16:49:26
#Sta/Elev= 6 
       02601.538   2.7172601.538    5.652600.072   10.652600.072  13.5832601.538
    16.32601.538
#Mann= 3 ,0,0
       0    .035       0   2.717    .035       0  13.583    .035       0
Bank Sta=2.717,13.583
XS Rating Curve= 0 ,0
XS HTab Starting El and Incr=2600.13,0.07, 20 
XS HTab Horizontal Distribution= 5 , 5 , 5 
Exp/Cntr=0.3,0.1

Type RM Length L Ch R = 1 ,79.500* ,0.5,0.5,0.5
Node Last Edited Time=Dec/07/2025 16:49:26
#Sta/Elev= 6 
       02601.538   2.7172601.538    5.652600.072   10.652600.072  13.5832601.538
    16.32601.538
#Mann= 3 ,0,0
       0    .035       0   2.717    .035       0  13.583    .035       0
Bank Sta=2.717,13.583
XS Rating Curve= 0 ,0
XS HTab Starting El and Incr=2600.13,0.07, 20 
XS HTab Horizontal Distribution= 5 , 5 , 5 
Exp/Cntr=0.3,0.1

Type RM Length L Ch R = 1 ,79.000* ,0.5,0.5,0.5
Node Last Edited Time=Dec/07/2025 16:49:26
#Sta/Elev= 6 
       02601.537   2.7172601.537    5.652600.071   10.652600.071  13.5832601.537
    16.32601.537
#Mann= 3 ,0,0
       0    .035       0   2.717    .035       0  13.583    .035       0
Bank Sta=2.717,13.583
XS Rating Curve= 0 ,0
XS HTab Starting El and Incr=2600.13,0.07, 20 
XS HTab Horizontal Distribution= 5 , 5 , 5 
Exp/Cntr=0.3,0.1

Type RM Length L Ch R = 1 ,78.500* ,0.5,0.5,0.5
Node Last Edited Time=Dec/07/2025 16:49:26
#Sta/Elev= 6 
       02601.537   2.7172601.537    5.652600.071   10.652600.071  13.5832601.537
    16.32601.537
#Mann= 3 ,0,0
       0    .035       0   2.717    .035       0  13.583    .035       0
Bank Sta=2.717,13.583
XS Rating Curve= 0 ,0
XS HTab Starting El and Incr=2600.13,0.07, 20 
XS HTab Horizontal Distribution= 5 , 5 , 5 
Exp/Cntr=0.3,0.1

Type RM Length L Ch R = 1 ,78.000* ,0.5,0.5,0.5
Node Last Edited Time=Dec/07/2025 16:49:26
#Sta/Elev= 6 
       02601.536   2.7172601.536    5.65 2600.07   10.65 2600.07  13.5832601.536
    16.32601.536
#Mann= 3 ,0,0
       0    .035       0   2.717    .035       0  13.583    .035       0
Bank Sta=2.717,13.583
XS Rating Curve= 0 ,0
XS HTab Starting El and Incr=2600.13,0.07, 20 
XS HTab Horizontal Distribution= 5 , 5 , 5 
Exp/Cntr=0.3,0.1

Type RM Length L Ch R = 1 ,77.500* ,0.5,0.5,0.5
Node Last Edited Time=Dec/07/2025 16:49:26
#Sta/Elev= 6 
       02601.536   2.7172601.536    5.65 2600.07   10.65 2600.07  13.5832601.536
    16.32601.536
#Mann= 3 ,0,0
       0    .035       0   2.717    .035       0  13.583    .035       0
Bank Sta=2.717,13.583
XS Rating Curve= 0 ,0
XS HTab Starting El and Incr=2600.13,0.07, 20 
XS HTab Horizontal Distribution= 5 , 5 , 5 
Exp/Cntr=0.3,0.1

Type RM Length L Ch R = 1 ,77.000* ,0.5,0.5,0.5
Node Last Edited Time=Dec/07/2025 16:49:26
#Sta/Elev= 6 
       02601.535   2.7172601.535    5.652600.069   10.652600.069  13.5832601.535
    16.32601.535
#Mann= 3 ,0,0
       0    .035       0   2.717    .035       0  13.583    .035       0
Bank Sta=2.717,13.583
XS Rating Curve= 0 ,0
XS HTab Starting El and Incr=2600.13,0.07, 20 
XS HTab Horizontal Distribution= 5 , 5 , 5 
Exp/Cntr=0.3,0.1

Type RM Length L Ch R = 1 ,76.500* ,0.5,0.5,0.5
Node Last Edited Time=Dec/07/2025 16:49:26
#Sta/Elev= 6 
       02601.535   2.7172601.535    5.652600.069   10.652600.069  13.5832601.535
    16.32601.535
#Mann= 3 ,0,0
       0    .035       0   2.717    .035       0  13.583    .035       0
Bank Sta=2.717,13.583
XS Rating Curve= 0 ,0
XS HTab Starting El and Incr=2600.13,0.07, 20 
XS HTab Horizontal Distribution= 5 , 5 , 5 
Exp/Cntr=0.3,0.1

Type RM Length L Ch R = 1 ,76.000* ,0.5,0.5,0.5
Node Last Edited Time=Dec/07/2025 16:49:26
#Sta/Elev= 6 
       02601.535   2.7172601.535    5.652600.068   10.652600.068  13.5832601.535
    16.32601.535
#Mann= 3 ,0,0
       0    .035       0   2.717    .035       0  13.583    .035       0
Bank Sta=2.717,13.583
XS Rating Curve= 0 ,0
XS HTab Starting El and Incr=2600.13,0.07, 20 
XS HTab Horizontal Distribution= 5 , 5 , 5 
Exp/Cntr=0.3,0.1

Type RM Length L Ch R = 1 ,75.500* ,0.5,0.5,0.5
Node Last Edited Time=Dec/07/2025 16:49:26
#Sta/Elev= 6 
       02601.534   2.7172601.534    5.652600.068   10.652600.068  13.5832601.534
    16.32601.534
#Mann= 3 ,0,0
       0    .035       0   2.717    .035       0  13.583    .035       0
Bank Sta=2.717,13.583
XS Rating Curve= 0 ,0
XS HTab Starting El and Incr=2600.13,0.07, 20 
XS HTab Horizontal Distribution= 5 , 5 , 5 
Exp/Cntr=0.3,0.1

Type RM Length L Ch R = 1 ,75.000* ,0.5,0.5,0.5
Node Last Edited Time=Dec/07/2025 16:49:26
#Sta/Elev= 6 
       02601.534   2.7172601.534    5.652600.068   10.652600.068  13.5832601.534
    16.32601.534
#Mann= 3 ,0,0
       0    .035       0   2.717    .035       0  13.583    .035       0
Bank Sta=2.717,13.583
XS Rating Curve= 0 ,0
XS HTab Starting El and Incr=2600.13,0.07, 20 
XS HTab Horizontal Distribution= 5 , 5 , 5 
Exp/Cntr=0.3,0.1

Type RM Length L Ch R = 1 ,74.500* ,0.5,0.5,0.5
Node Last Edited Time=Dec/07/2025 16:49:26
#Sta/Elev= 6 
       02601.533   2.7172601.533    5.652600.067   10.652600.067  13.5832601.533
    16.32601.533
#Mann= 3 ,0,0
       0    .035       0   2.717    .035       0  13.583    .035       0
Bank Sta=2.717,13.583
XS Rating Curve= 0 ,0
XS HTab Starting El and Incr=2600.13,0.07, 20 
XS HTab Horizontal Distribution= 5 , 5 , 5 
Exp/Cntr=0.3,0.1

Type RM Length L Ch R = 1 ,74.000* ,0.5,0.5,0.5
Node Last Edited Time=Dec/07/2025 16:49:26
#Sta/Elev= 6 
       02601.533   2.7172601.533    5.652600.067   10.652600.067  13.5832601.533
    16.32601.533
#Mann= 3 ,0,0
       0    .035       0   2.717    .035       0  13.583    .035       0
Bank Sta=2.717,13.583
XS Rating Curve= 0 ,0
XS HTab Starting El and Incr=2600.13,0.07, 20 
XS HTab Horizontal Distribution= 5 , 5 , 5 
Exp/Cntr=0.3,0.1

Type RM Length L Ch R = 1 ,73.500* ,0.5,0.5,0.5
Node Last Edited Time=Dec/07/2025 16:49:26
#Sta/Elev= 6 
       02601.532   2.7172601.532    5.652600.066   10.652600.066  13.5832601.532
    16.32601.532
#Mann= 3 ,0,0
       0    .035       0   2.717    .035       0  13.583    .035       0
Bank Sta=2.717,13.583
XS Rating Curve= 0 ,0
XS HTab Starting El and Incr=2600.13,0.07, 20 
XS HTab Horizontal Distribution= 5 , 5 , 5 
Exp/Cntr=0.3,0.1

Type RM Length L Ch R = 1 ,73.000* ,0.5,0.5,0.5
Node Last Edited Time=Dec/07/2025 16:49:26
#Sta/Elev= 6 
       02601.532   2.7172601.532    5.652600.066   10.652600.066  13.5832601.532
    16.32601.532
#Mann= 3 ,0,0
       0    .035       0   2.717    .035       0  13.583    .035       0
Bank Sta=2.717,13.583
XS Rating Curve= 0 ,0
XS HTab Starting El and Incr=2600.13,0.07, 20 
XS HTab Horizontal Distribution= 5 , 5 , 5 
Exp/Cntr=0.3,0.1

Type RM Length L Ch R = 1 ,72.500* ,0.5,0.5,0.5
Node Last Edited Time=Dec/07/2025 16:49:26
#Sta/Elev= 6 
       02601.531   2.7172601.531    5.652600.065   10.652600.065  13.5832601.531
    16.32601.531
#Mann= 3 ,0,0
       0    .035       0   2.717    .035       0  13.583    .035       0
Bank Sta=2.717,13.583
XS Rating Curve= 0 ,0
XS HTab Starting El and Incr=2600.13,0.07, 20 
XS HTab Horizontal Distribution= 5 , 5 , 5 
Exp/Cntr=0.3,0.1

Type RM Length L Ch R = 1 ,72.000* ,0.5,0.5,0.5
Node Last Edited Time=Dec/07/2025 16:49:26
#Sta/Elev= 6 
       02601.531   2.7172601.531    5.652600.065   10.652600.065  13.5832601.531
    16.32601.531
#Mann= 3 ,0,0
       0    .035       0   2.717    .035       0  13.583    .035       0
Bank Sta=2.717,13.583
XS Rating Curve= 0 ,0
XS HTab Starting El and Incr=2600.12,0.07, 20 
XS HTab Horizontal Distribution= 5 , 5 , 5 
Exp/Cntr=0.3,0.1

Type RM Length L Ch R = 1 ,71.500* ,0.5,0.5,0.5
Node Last Edited Time=Dec/07/2025 16:49:26
#Sta/Elev= 6 
       02601.531   2.7172601.531    5.652600.064   10.652600.064  13.5832601.531
    16.32601.531
#Mann= 3 ,0,0
       0    .035       0   2.717    .035       0  13.583    .035       0
Bank Sta=2.717,13.583
XS Rating Curve= 0 ,0
XS HTab Starting El and Incr=2600.12,0.07, 20 
XS HTab Horizontal Distribution= 5 , 5 , 5 
Exp/Cntr=0.3,0.1

Type RM Length L Ch R = 1 ,71.000* ,0.5,0.5,0.5
Node Last Edited Time=Dec/07/2025 16:49:26
#Sta/Elev= 6 
       0 2601.53   2.717 2601.53    5.652600.064   10.652600.064  13.583 2601.53
    16.3 2601.53
#Mann= 3 ,0,0
       0    .035       0   2.717    .035       0  13.583    .035       0
Bank Sta=2.717,13.583
XS Rating Curve= 0 ,0
XS HTab Starting El and Incr=2600.12,0.07, 20 
XS HTab Horizontal Distribution= 5 , 5 , 5 
Exp/Cntr=0.3,0.1

Type RM Length L Ch R = 1 ,70.500* ,0.5,0.5,0.5
Node Last Edited Time=Dec/07/2025 16:49:26
#Sta/Elev= 6 
       0 2601.53   2.717 2601.53    5.652600.063   10.652600.063  13.583 2601.53
    16.3 2601.53
#Mann= 3 ,0,0
       0    .035       0   2.717    .035       0  13.583    .035       0
Bank Sta=2.717,13.583
XS Rating Curve= 0 ,0
XS HTab Starting El and Incr=2600.12,0.07, 20 
XS HTab Horizontal Distribution= 5 , 5 , 5 
Exp/Cntr=0.3,0.1

Type RM Length L Ch R = 1 ,70.000* ,0.5,0.5,0.5
Node Last Edited Time=Dec/07/2025 16:49:26
#Sta/Elev= 6 
       02601.529   2.7172601.529    5.652600.063   10.652600.063  13.5832601.529
    16.32601.529
#Mann= 3 ,0,0
       0    .035       0   2.717    .035       0  13.583    .035       0
Bank Sta=2.717,13.583
XS Rating Curve= 0 ,0
XS HTab Starting El and Incr=2600.12,0.07, 20 
XS HTab Horizontal Distribution= 5 , 5 , 5 
Exp/Cntr=0.3,0.1

Type RM Length L Ch R = 1 ,69.500* ,0.5,0.5,0.5
Node Last Edited Time=Dec/07/2025 16:49:26
#Sta/Elev= 6 
       02601.529   2.7172601.529    5.652600.062   10.652600.062  13.5832601.529
    16.32601.529
#Mann= 3 ,0,0
       0    .035       0   2.717    .035       0  13.583    .035       0
Bank Sta=2.717,13.583
XS Rating Curve= 0 ,0
XS HTab Starting El and Incr=2600.12,0.07, 20 
XS HTab Horizontal Distribution= 5 , 5 , 5 
Exp/Cntr=0.3,0.1

Type RM Length L Ch R = 1 ,69.000* ,0.5,0.5,0.5
Node Last Edited Time=Dec/07/2025 16:49:26
#Sta/Elev= 6 
       02601.528   2.7172601.528    5.652600.062   10.652600.062  13.5832601.528
    16.32601.528
#Mann= 3 ,0,0
       0    .035       0   2.717    .035       0  13.583    .035       0
Bank Sta=2.717,13.583
XS Rating Curve= 0 ,0
XS HTab Starting El and Incr=2600.12,0.07, 20 
XS HTab Horizontal Distribution= 5 , 5 , 5 
Exp/Cntr=0.3,0.1

Type RM Length L Ch R = 1 ,68.500* ,0.5,0.5,0.5
Node Last Edited Time=Dec/07/2025 16:49:26
#Sta/Elev= 6 
       02601.528   2.7172601.528    5.652600.062   10.652600.062  13.5832601.528
    16.32601.528
#Mann= 3 ,0,0
       0    .035       0   2.717    .035       0  13.583    .035       0
Bank Sta=2.717,13.583
XS Rating Curve= 0 ,0
XS HTab Starting El and Incr=2600.12,0.07, 20 
XS HTab Horizontal Distribution= 5 , 5 , 5 
Exp/Cntr=0.3,0.1

Type RM Length L Ch R = 1 ,68.000* ,0.5,0.5,0.5
Node Last Edited Time=Dec/07/2025 16:49:26
#Sta/Elev= 6 
       02601.528   2.7172601.528    5.652600.061   10.652600.061  13.5832601.528
    16.32601.528
#Mann= 3 ,0,0
       0    .035       0   2.717    .035       0  13.583    .035       0
Bank Sta=2.717,13.583
XS Rating Curve= 0 ,0
XS HTab Starting El and Incr=2600.12,0.07, 20 
XS HTab Horizontal Distribution= 5 , 5 , 5 
Exp/Cntr=0.3,0.1

Type RM Length L Ch R = 1 ,67.500* ,0.5,0.5,0.5
Node Last Edited Time=Dec/07/2025 16:49:26
#Sta/Elev= 6 
       02601.527   2.7172601.527    5.652600.061   10.652600.061  13.5832601.527
    16.32601.527
#Mann= 3 ,0,0
       0    .035       0   2.717    .035       0  13.583    .035       0
Bank Sta=2.717,13.583
XS Rating Curve= 0 ,0
XS HTab Starting El and Incr=2600.12,0.07, 20 
XS HTab Horizontal Distribution= 5 , 5 , 5 
Exp/Cntr=0.3,0.1

Type RM Length L Ch R = 1 ,67.000* ,0.5,0.5,0.5
Node Last Edited Time=Dec/07/2025 16:49:26
#Sta/Elev= 6 
       02601.527   2.7172601.527    5.65 2600.06   10.65 2600.06  13.5832601.527
    16.32601.527
#Mann= 3 ,0,0
       0    .035       0   2.717    .035       0  13.583    .035       0
Bank Sta=2.717,13.583
XS Rating Curve= 0 ,0
XS HTab Starting El and Incr=2600.12,0.07, 20 
XS HTab Horizontal Distribution= 5 , 5 , 5 
Exp/Cntr=0.3,0.1
