Geom Title=Geometry
Program Version=6.70
Viewing Rectangle= 999999 , 1000101 , 1000005.54 , 999994.46 

River Reach=River           ,Reach           
Reach XY= 2 
        1000100.        1000000.        1000000.        1000000.
Rch Text X Y=1000075,1000000
Reverse River Text=-1 

Type RM Length L Ch R = 1 ,100     ,0.5,0.5,0.5
Node Last Edited Time=Dec/06/2025 18:26:26
#Sta/Elev= 4 
       02601.4672.933337    26007.933337    260010.866672601.467
#Mann= 3 ,0,0
       0    .035       0       0    .035       010.86667    .035       0
Bank Sta=0,10.86667
XS Rating Curve= 0 ,0
XS HTab Starting El and Incr=2600.15,0.07, 20 
XS HTab Horizontal Distribution= 5 , 5 , 5 
Exp/Cntr=0.3,0.1

Type RM Length L Ch R = 1 ,99.500* ,0.5,0.5,0.5
Node Last Edited Time=Dec/06/2025 18:29:39
#Sta/Elev= 4 
       02601.467   2.933    2600   7.933    2600  10.8672601.467
#Mann= 2 ,0,0
       0    .035       0  10.867    .035       0
Bank Sta=0,10.867
XS Rating Curve= 0 ,0
XS HTab Starting El and Incr=2600.15,0.07, 20 
XS HTab Horizontal Distribution= 5 , 5 , 5 
Exp/Cntr=0.3,0.1

Type RM Length L Ch R = 1 ,99.000* ,0.5,0.5,0.5
Node Last Edited Time=Dec/06/2025 18:29:39
#Sta/Elev= 4 
       02601.466   2.9332599.999   7.9332599.999  10.8672601.466
#Mann= 2 ,0,0
       0    .035       0  10.867    .035       0
Bank Sta=0,10.867
XS Rating Curve= 0 ,0
XS HTab Starting El and Incr=2600.15,0.07, 20 
XS HTab Horizontal Distribution= 5 , 5 , 5 
Exp/Cntr=0.3,0.1

Type RM Length L Ch R = 1 ,98.500* ,0.5,0.5,0.5
Node Last Edited Time=Dec/06/2025 18:29:39
#Sta/Elev= 4 
       02601.466   2.9332599.999   7.9332599.999  10.8672601.466
#Mann= 2 ,0,0
       0    .035       0  10.867    .035       0
Bank Sta=0,10.867
XS Rating Curve= 0 ,0
XS HTab Starting El and Incr=2600.15,0.07, 20 
XS HTab Horizontal Distribution= 5 , 5 , 5 
Exp/Cntr=0.3,0.1

Type RM Length L Ch R = 1 ,98.000* ,0.5,0.5,0.5
Node Last Edited Time=Dec/06/2025 18:29:39
#Sta/Elev= 4 
       02601.465   2.9332599.998   7.9332599.998  10.8672601.465
#Mann= 2 ,0,0
       0    .035       0  10.867    .035       0
Bank Sta=0,10.867
XS Rating Curve= 0 ,0
XS HTab Starting El and Incr=2600.15,0.07, 20 
XS HTab Horizontal Distribution= 5 , 5 , 5 
Exp/Cntr=0.3,0.1

Type RM Length L Ch R = 1 ,97.500* ,0.5,0.5,0.5
Node Last Edited Time=Dec/06/2025 18:29:39
#Sta/Elev= 4 
       02601.465   2.9332599.998   7.9332599.998  10.8672601.465
#Mann= 2 ,0,0
       0    .035       0  10.867    .035       0
Bank Sta=0,10.867
XS Rating Curve= 0 ,0
XS HTab Starting El and Incr=2600.15,0.07, 20 
XS HTab Horizontal Distribution= 5 , 5 , 5 
Exp/Cntr=0.3,0.1

Type RM Length L Ch R = 1 ,97.000* ,0.5,0.5,0.5
Node Last Edited Time=Dec/06/2025 18:29:39
#Sta/Elev= 4 
       02601.464   2.9332599.997   7.9332599.997  10.8672601.464
#Mann= 2 ,0,0
       0    .035       0  10.867    .035       0
Bank Sta=0,10.867
XS Rating Curve= 0 ,0
XS HTab Starting El and Incr=2600.15,0.07, 20 
XS HTab Horizontal Distribution= 5 , 5 , 5 
Exp/Cntr=0.3,0.1

Type RM Length L Ch R = 1 ,96.500* ,0.5,0.5,0.5
Node Last Edited Time=Dec/06/2025 18:29:39
#Sta/Elev= 4 
       02601.464   2.9332599.997   7.9332599.997  10.8672601.464
#Mann= 2 ,0,0
       0    .035       0  10.867    .035       0
Bank Sta=0,10.867
XS Rating Curve= 0 ,0
XS HTab Starting El and Incr=2600.15,0.07, 20 
XS HTab Horizontal Distribution= 5 , 5 , 5 
Exp/Cntr=0.3,0.1

Type RM Length L Ch R = 1 ,96.000* ,0.5,0.5,0.5
Node Last Edited Time=Dec/06/2025 18:29:39
#Sta/Elev= 4 
       02601.463   2.9332599.996   7.9332599.996  10.8672601.463
#Mann= 2 ,0,0
       0    .035       0  10.867    .035       0
Bank Sta=0,10.867
XS Rating Curve= 0 ,0
XS HTab Starting El and Incr=2600.15,0.07, 20 
XS HTab Horizontal Distribution= 5 , 5 , 5 
Exp/Cntr=0.3,0.1

Type RM Length L Ch R = 1 ,95.500* ,0.5,0.5,0.5
Node Last Edited Time=Dec/06/2025 18:29:39
#Sta/Elev= 4 
       02601.463   2.9332599.996   7.9332599.996  10.8672601.463
#Mann= 2 ,0,0
       0    .035       0  10.867    .035       0
Bank Sta=0,10.867
XS Rating Curve= 0 ,0
XS HTab Starting El and Incr=2600.15,0.07, 20 
XS HTab Horizontal Distribution= 5 , 5 , 5 
Exp/Cntr=0.3,0.1

Type RM Length L Ch R = 1 ,95.000* ,0.5,0.5,0.5
Node Last Edited Time=Dec/06/2025 18:29:39
#Sta/Elev= 4 
       02601.463   2.9332599.996   7.9332599.996  10.8672601.463
#Mann= 2 ,0,0
       0    .035       0  10.867    .035       0
Bank Sta=0,10.867
XS Rating Curve= 0 ,0
XS HTab Starting El and Incr=2600.15,0.07, 20 
XS HTab Horizontal Distribution= 5 , 5 , 5 
Exp/Cntr=0.3,0.1

Type RM Length L Ch R = 1 ,94.500* ,0.5,0.5,0.5
Node Last Edited Time=Dec/06/2025 18:29:39
#Sta/Elev= 4 
       02601.462   2.9332599.995   7.9332599.995  10.8672601.462
#Mann= 2 ,0,0
       0    .035       0  10.867    .035       0
Bank Sta=0,10.867
XS Rating Curve= 0 ,0
XS HTab Starting El and Incr=2600.15,0.07, 20 
XS HTab Horizontal Distribution= 5 , 5 , 5 
Exp/Cntr=0.3,0.1

Type RM Length L Ch R = 1 ,94.000* ,0.5,0.5,0.5
Node Last Edited Time=Dec/06/2025 18:29:39
#Sta/Elev= 4 
       02601.462   2.9332599.995   7.9332599.995  10.8672601.462
#Mann= 2 ,0,0
       0    .035       0  10.867    .035       0
Bank Sta=0,10.867
XS Rating Curve= 0 ,0
XS HTab Starting El and Incr=2600.14,0.07, 20 
XS HTab Horizontal Distribution= 5 , 5 , 5 
Exp/Cntr=0.3,0.1

Type RM Length L Ch R = 1 ,93.500* ,0.5,0.5,0.5
Node Last Edited Time=Dec/06/2025 18:29:39
#Sta/Elev= 4 
       02601.461   2.9332599.994   7.9332599.994  10.8672601.461
#Mann= 2 ,0,0
       0    .035       0  10.867    .035       0
Bank Sta=0,10.867
XS Rating Curve= 0 ,0
XS HTab Starting El and Incr=2600.14,0.07, 20 
XS HTab Horizontal Distribution= 5 , 5 , 5 
Exp/Cntr=0.3,0.1

Type RM Length L Ch R = 1 ,93.000* ,0.5,0.5,0.5
Node Last Edited Time=Dec/06/2025 18:29:39
#Sta/Elev= 4 
       02601.461   2.9332599.994   7.9332599.994  10.8672601.461
#Mann= 2 ,0,0
       0    .035       0  10.867    .035       0
Bank Sta=0,10.867
XS Rating Curve= 0 ,0
XS HTab Starting El and Incr=2600.14,0.07, 20 
XS HTab Horizontal Distribution= 5 , 5 , 5 
Exp/Cntr=0.3,0.1

Type RM Length L Ch R = 1 ,92.500* ,0.5,0.5,0.5
Node Last Edited Time=Dec/06/2025 18:29:39
#Sta/Elev= 4 
       0 2601.46   2.9332599.993   7.9332599.993  10.867 2601.46
#Mann= 2 ,0,0
       0    .035       0  10.867    .035       0
Bank Sta=0,10.867
XS Rating Curve= 0 ,0
XS HTab Starting El and Incr=2600.14,0.07, 20 
XS HTab Horizontal Distribution= 5 , 5 , 5 
Exp/Cntr=0.3,0.1

Type RM Length L Ch R = 1 ,92.000* ,0.5,0.5,0.5
Node Last Edited Time=Dec/06/2025 18:29:39
#Sta/Elev= 4 
       0 2601.46   2.9332599.993   7.9332599.993  10.867 2601.46
#Mann= 2 ,0,0
       0    .035       0  10.867    .035       0
Bank Sta=0,10.867
XS Rating Curve= 0 ,0
XS HTab Starting El and Incr=2600.14,0.07, 20 
XS HTab Horizontal Distribution= 5 , 5 , 5 
Exp/Cntr=0.3,0.1

Type RM Length L Ch R = 1 ,91.500* ,0.5,0.5,0.5
Node Last Edited Time=Dec/06/2025 18:29:39
#Sta/Elev= 4 
       02601.459   2.9332599.992   7.9332599.992  10.8672601.459
#Mann= 2 ,0,0
       0    .035       0  10.867    .035       0
Bank Sta=0,10.867
XS Rating Curve= 0 ,0
XS HTab Starting El and Incr=2600.14,0.07, 20 
XS HTab Horizontal Distribution= 5 , 5 , 5 
Exp/Cntr=0.3,0.1

Type RM Length L Ch R = 1 ,91.000* ,0.5,0.5,0.5
Node Last Edited Time=Dec/06/2025 18:29:39
#Sta/Elev= 4 
       02601.459   2.9332599.992   7.9332599.992  10.8672601.459
#Mann= 2 ,0,0
       0    .035       0  10.867    .035       0
Bank Sta=0,10.867
XS Rating Curve= 0 ,0
XS HTab Starting El and Incr=2600.14,0.07, 20 
XS HTab Horizontal Distribution= 5 , 5 , 5 
Exp/Cntr=0.3,0.1

Type RM Length L Ch R = 1 ,90.500* ,0.5,0.5,0.5
Node Last Edited Time=Dec/06/2025 18:29:39
#Sta/Elev= 4 
       02601.458   2.9332599.991   7.9332599.991  10.8672601.458
#Mann= 2 ,0,0
       0    .035       0  10.867    .035       0
Bank Sta=0,10.867
XS Rating Curve= 0 ,0
XS HTab Starting El and Incr=2600.14,0.07, 20 
XS HTab Horizontal Distribution= 5 , 5 , 5 
Exp/Cntr=0.3,0.1

Type RM Length L Ch R = 1 ,90.000* ,0.5,0.5,0.5
Node Last Edited Time=Dec/06/2025 18:29:39
#Sta/Elev= 4 
       02601.458   2.9332599.991   7.9332599.991  10.8672601.458
#Mann= 2 ,0,0
       0    .035       0  10.867    .035       0
Bank Sta=0,10.867
XS Rating Curve= 0 ,0
XS HTab Starting El and Incr=2600.14,0.07, 20 
XS HTab Horizontal Distribution= 5 , 5 , 5 
Exp/Cntr=0.3,0.1

Type RM Length L Ch R = 1 ,89.500* ,0.5,0.5,0.5
Node Last Edited Time=Dec/06/2025 18:29:39
#Sta/Elev= 4 
       02601.458   2.933 2599.99   7.933 2599.99  10.8672601.458
#Mann= 2 ,0,0
       0    .035       0  10.867    .035       0
Bank Sta=0,10.867
XS Rating Curve= 0 ,0
XS HTab Starting El and Incr=2600.14,0.07, 20 
XS HTab Horizontal Distribution= 5 , 5 , 5 
Exp/Cntr=0.3,0.1

Type RM Length L Ch R = 1 ,89.000* ,0.5,0.5,0.5
Node Last Edited Time=Dec/06/2025 18:29:39
#Sta/Elev= 4 
       02601.457   2.933 2599.99   7.933 2599.99  10.8672601.457
#Mann= 2 ,0,0
       0    .035       0  10.867    .035       0
Bank Sta=0,10.867
XS Rating Curve= 0 ,0
XS HTab Starting El and Incr=2600.14,0.07, 20 
XS HTab Horizontal Distribution= 5 , 5 , 5 
Exp/Cntr=0.3,0.1

Type RM Length L Ch R = 1 ,88.500* ,0.5,0.5,0.5
Node Last Edited Time=Dec/06/2025 18:29:39
#Sta/Elev= 4 
       02601.457   2.933 2599.99   7.933 2599.99  10.8672601.457
#Mann= 2 ,0,0
       0    .035       0  10.867    .035       0
Bank Sta=0,10.867
XS Rating Curve= 0 ,0
XS HTab Starting El and Incr=2600.14,0.07, 20 
XS HTab Horizontal Distribution= 5 , 5 , 5 
Exp/Cntr=0.3,0.1

Type RM Length L Ch R = 1 ,88.000* ,0.5,0.5,0.5
Node Last Edited Time=Dec/06/2025 18:29:39
#Sta/Elev= 4 
       02601.456   2.9332599.989   7.9332599.989  10.8672601.456
#Mann= 2 ,0,0
       0    .035       0  10.867    .035       0
Bank Sta=0,10.867
XS Rating Curve= 0 ,0
XS HTab Starting El and Incr=2600.14,0.07, 20 
XS HTab Horizontal Distribution= 5 , 5 , 5 
Exp/Cntr=0.3,0.1

Type RM Length L Ch R = 1 ,87.500* ,0.5,0.5,0.5
Node Last Edited Time=Dec/06/2025 18:29:39
#Sta/Elev= 4 
       02601.456   2.9332599.989   7.9332599.989  10.8672601.456
#Mann= 2 ,0,0
       0    .035       0  10.867    .035       0
Bank Sta=0,10.867
XS Rating Curve= 0 ,0
XS HTab Starting El and Incr=2600.14,0.07, 20 
XS HTab Horizontal Distribution= 5 , 5 , 5 
Exp/Cntr=0.3,0.1

Type RM Length L Ch R = 1 ,87.000* ,0.5,0.5,0.5
Node Last Edited Time=Dec/06/2025 18:29:39
#Sta/Elev= 4 
       02601.455   2.9332599.988   7.9332599.988  10.8672601.455
#Mann= 2 ,0,0
       0    .035       0  10.867    .035       0
Bank Sta=0,10.867
XS Rating Curve= 0 ,0
XS HTab Starting El and Incr=2600.14,0.07, 20 
XS HTab Horizontal Distribution= 5 , 5 , 5 
Exp/Cntr=0.3,0.1

Type RM Length L Ch R = 1 ,86.500* ,0.5,0.5,0.5
Node Last Edited Time=Dec/06/2025 18:29:39
#Sta/Elev= 4 
       02601.455   2.9332599.988   7.9332599.988  10.8672601.455
#Mann= 2 ,0,0
       0    .035       0  10.867    .035       0
Bank Sta=0,10.867
XS Rating Curve= 0 ,0
XS HTab Starting El and Incr=2600.14,0.07, 20 
XS HTab Horizontal Distribution= 5 , 5 , 5 
Exp/Cntr=0.3,0.1

Type RM Length L Ch R = 1 ,86.000* ,0.5,0.5,0.5
Node Last Edited Time=Dec/06/2025 18:29:39
#Sta/Elev= 4 
       02601.454   2.9332599.987   7.9332599.987  10.8672601.454
#Mann= 2 ,0,0
       0    .035       0  10.867    .035       0
Bank Sta=0,10.867
XS Rating Curve= 0 ,0
XS HTab Starting El and Incr=2600.14,0.07, 20 
XS HTab Horizontal Distribution= 5 , 5 , 5 
Exp/Cntr=0.3,0.1

Type RM Length L Ch R = 1 ,85.500* ,0.5,0.5,0.5
Node Last Edited Time=Dec/06/2025 18:29:39
#Sta/Elev= 4 
       02601.454   2.9332599.987   7.9332599.987  10.8672601.454
#Mann= 2 ,0,0
       0    .035       0  10.867    .035       0
Bank Sta=0,10.867
XS Rating Curve= 0 ,0
XS HTab Starting El and Incr=2600.14,0.07, 20 
XS HTab Horizontal Distribution= 5 , 5 , 5 
Exp/Cntr=0.3,0.1

Type RM Length L Ch R = 1 ,85.000* ,0.5,0.5,0.5
Node Last Edited Time=Dec/06/2025 18:29:39
#Sta/Elev= 4 
       02601.454   2.9332599.987   7.9332599.987  10.8672601.454
#Mann= 2 ,0,0
       0    .035       0  10.867    .035       0
Bank Sta=0,10.867
XS Rating Curve= 0 ,0
XS HTab Starting El and Incr=2600.14,0.07, 20 
XS HTab Horizontal Distribution= 5 , 5 , 5 
Exp/Cntr=0.3,0.1

Type RM Length L Ch R = 1 ,84.500* ,0.5,0.5,0.5
Node Last Edited Time=Dec/06/2025 18:29:39
#Sta/Elev= 4 
       02601.453   2.9332599.986   7.9332599.986  10.8672601.453
#Mann= 2 ,0,0
       0    .035       0  10.867    .035       0
Bank Sta=0,10.867
XS Rating Curve= 0 ,0
XS HTab Starting El and Incr=2600.14,0.07, 20 
XS HTab Horizontal Distribution= 5 , 5 , 5 
Exp/Cntr=0.3,0.1

Type RM Length L Ch R = 1 ,84.000* ,0.5,0.5,0.5
Node Last Edited Time=Dec/06/2025 18:29:39
#Sta/Elev= 4 
       02601.453   2.9332599.986   7.9332599.986  10.8672601.453
#Mann= 2 ,0,0
       0    .035       0  10.867    .035       0
Bank Sta=0,10.867
XS Rating Curve= 0 ,0
XS HTab Starting El and Incr=2600.14,0.07, 20 
XS HTab Horizontal Distribution= 5 , 5 , 5 
Exp/Cntr=0.3,0.1

Type RM Length L Ch R = 1 ,83.500* ,0.5,0.5,0.5
Node Last Edited Time=Dec/06/2025 18:29:39
#Sta/Elev= 4 
       02601.452   2.9332599.985   7.9332599.985  10.8672601.452
#Mann= 2 ,0,0
       0    .035       0  10.867    .035       0
Bank Sta=0,10.867
XS Rating Curve= 0 ,0
XS HTab Starting El and Incr=2600.14,0.07, 20 
XS HTab Horizontal Distribution= 5 , 5 , 5 
Exp/Cntr=0.3,0.1

Type RM Length L Ch R = 1 ,83.000* ,0.5,0.5,0.5
Node Last Edited Time=Dec/06/2025 18:29:39
#Sta/Elev= 4 
       02601.452   2.9332599.985   7.9332599.985  10.8672601.452
#Mann= 2 ,0,0
       0    .035       0  10.867    .035       0
Bank Sta=0,10.867
XS Rating Curve= 0 ,0
XS HTab Starting El and Incr=2600.13,0.07, 20 
XS HTab Horizontal Distribution= 5 , 5 , 5 
Exp/Cntr=0.3,0.1

Type RM Length L Ch R = 1 ,82.500* ,0.5,0.5,0.5
Node Last Edited Time=Dec/06/2025 18:29:39
#Sta/Elev= 4 
       02601.451   2.9332599.984   7.9332599.984  10.8672601.451
#Mann= 2 ,0,0
       0    .035       0  10.867    .035       0
Bank Sta=0,10.867
XS Rating Curve= 0 ,0
XS HTab Starting El and Incr=2600.13,0.07, 20 
XS HTab Horizontal Distribution= 5 , 5 , 5 
Exp/Cntr=0.3,0.1

Type RM Length L Ch R = 1 ,82.000* ,0.5,0.5,0.5
Node Last Edited Time=Dec/06/2025 18:29:39
#Sta/Elev= 4 
       02601.451   2.9332599.984   7.9332599.984  10.8672601.451
#Mann= 2 ,0,0
       0    .035       0  10.867    .035       0
Bank Sta=0,10.867
XS Rating Curve= 0 ,0
XS HTab Starting El and Incr=2600.13,0.07, 20 
XS HTab Horizontal Distribution= 5 , 5 , 5 
Exp/Cntr=0.3,0.1

Type RM Length L Ch R = 1 ,81.500* ,0.5,0.5,0.5
Node Last Edited Time=Dec/06/2025 18:29:39
#Sta/Elev= 4 
       0 2601.45   2.9332599.983   7.9332599.983  10.867 2601.45
#Mann= 2 ,0,0
       0    .035       0  10.867    .035       0
Bank Sta=0,10.867
XS Rating Curve= 0 ,0
XS HTab Starting El and Incr=2600.13,0.07, 20 
XS HTab Horizontal Distribution= 5 , 5 , 5 
Exp/Cntr=0.3,0.1

Type RM Length L Ch R = 1 ,81.000* ,0.5,0.5,0.5
Node Last Edited Time=Dec/06/2025 18:29:39
#Sta/Elev= 4 
       0 2601.45   2.9332599.983   7.9332599.983  10.867 2601.45
#Mann= 2 ,0,0
       0    .035       0  10.867    .035       0
Bank Sta=0,10.867
XS Rating Curve= 0 ,0
XS HTab Starting El and Incr=2600.13,0.07, 20 
XS HTab Horizontal Distribution= 5 , 5 , 5 
Exp/Cntr=0.3,0.1

Type RM Length L Ch R = 1 ,80.500* ,0.5,0.5,0.5
Node Last Edited Time=Dec/06/2025 18:29:39
#Sta/Elev= 4 
       02601.449   2.9332599.982   7.9332599.982  10.8672601.449
#Mann= 2 ,0,0
       0    .035       0  10.867    .035       0
Bank Sta=0,10.867
XS Rating Curve= 0 ,0
XS HTab Starting El and Incr=2600.13,0.07, 20 
XS HTab Horizontal Distribution= 5 , 5 , 5 
Exp/Cntr=0.3,0.1

Type RM Length L Ch R = 1 ,80.000* ,0.5,0.5,0.5
Node Last Edited Time=Dec/06/2025 18:29:39
#Sta/Elev= 4 
       02601.449   2.9332599.982   7.9332599.982  10.8672601.449
#Mann= 2 ,0,0
       0    .035       0  10.867    .035       0
Bank Sta=0,10.867
XS Rating Curve= 0 ,0
XS HTab Starting El and Incr=2600.13,0.07, 20 
XS HTab Horizontal Distribution= 5 , 5 , 5 
Exp/Cntr=0.3,0.1

Type RM Length L Ch R = 1 ,79.500* ,0.5,0.5,0.5
Node Last Edited Time=Dec/06/2025 18:29:39
#Sta/Elev= 4 
       02601.448   2.9332599.981   7.9332599.981  10.8672601.448
#Mann= 2 ,0,0
       0    .035       0  10.867    .035       0
Bank Sta=0,10.867
XS Rating Curve= 0 ,0
XS HTab Starting El and Incr=2600.13,0.07, 20 
XS HTab Horizontal Distribution= 5 , 5 , 5 
Exp/Cntr=0.3,0.1

Type RM Length L Ch R = 1 ,79.000* ,0.5,0.5,0.5
Node Last Edited Time=Dec/06/2025 18:29:39
#Sta/Elev= 4 
       02601.448   2.9332599.981   7.9332599.981  10.8672601.448
#Mann= 2 ,0,0
       0    .035       0  10.867    .035       0
Bank Sta=0,10.867
XS Rating Curve= 0 ,0
XS HTab Starting El and Incr=2600.13,0.07, 20 
XS HTab Horizontal Distribution= 5 , 5 , 5 
Exp/Cntr=0.3,0.1

Type RM Length L Ch R = 1 ,78.500* ,0.5,0.5,0.5
Node Last Edited Time=Dec/06/2025 18:29:39
#Sta/Elev= 4 
       02601.448   2.9332599.981   7.9332599.981  10.8672601.448
#Mann= 2 ,0,0
       0    .035       0  10.867    .035       0
Bank Sta=0,10.867
XS Rating Curve= 0 ,0
XS HTab Starting El and Incr=2600.13,0.07, 20 
XS HTab Horizontal Distribution= 5 , 5 , 5 
Exp/Cntr=0.3,0.1

Type RM Length L Ch R = 1 ,78.000* ,0.5,0.5,0.5
Node Last Edited Time=Dec/06/2025 18:29:39
#Sta/Elev= 4 
       02601.447   2.933 2599.98   7.933 2599.98  10.8672601.447
#Mann= 2 ,0,0
       0    .035       0  10.867    .035       0
Bank Sta=0,10.867
XS Rating Curve= 0 ,0
XS HTab Starting El and Incr=2600.13,0.07, 20 
XS HTab Horizontal Distribution= 5 , 5 , 5 
Exp/Cntr=0.3,0.1

Type RM Length L Ch R = 1 ,77.500* ,0.5,0.5,0.5
Node Last Edited Time=Dec/06/2025 18:29:39
#Sta/Elev= 4 
       02601.447   2.933 2599.98   7.933 2599.98  10.8672601.447
#Mann= 2 ,0,0
       0    .035       0  10.867    .035       0
Bank Sta=0,10.867
XS Rating Curve= 0 ,0
XS HTab Starting El and Incr=2600.13,0.07, 20 
XS HTab Horizontal Distribution= 5 , 5 , 5 
Exp/Cntr=0.3,0.1

Type RM Length L Ch R = 1 ,77.000* ,0.5,0.5,0.5
Node Last Edited Time=Dec/06/2025 18:29:39
#Sta/Elev= 4 
       02601.446   2.9332599.979   7.9332599.979  10.8672601.446
#Mann= 2 ,0,0
       0    .035       0  10.867    .035       0
Bank Sta=0,10.867
XS Rating Curve= 0 ,0
XS HTab Starting El and Incr=2600.13,0.07, 20 
XS HTab Horizontal Distribution= 5 , 5 , 5 
Exp/Cntr=0.3,0.1

Type RM Length L Ch R = 1 ,76.500* ,0.5,0.5,0.5
Node Last Edited Time=Dec/06/2025 18:29:39
#Sta/Elev= 4 
       02601.446   2.9332599.979   7.9332599.979  10.8672601.446
#Mann= 2 ,0,0
       0    .035       0  10.867    .035       0
Bank Sta=0,10.867
XS Rating Curve= 0 ,0
XS HTab Starting El and Incr=2600.13,0.07, 20 
XS HTab Horizontal Distribution= 5 , 5 , 5 
Exp/Cntr=0.3,0.1

Type RM Length L Ch R = 1 ,76.000* ,0.5,0.5,0.5
Node Last Edited Time=Dec/06/2025 18:29:39
#Sta/Elev= 4 
       02601.445   2.9332599.978   7.9332599.978  10.8672601.445
#Mann= 2 ,0,0
       0    .035       0  10.867    .035       0
Bank Sta=0,10.867
XS Rating Curve= 0 ,0
XS HTab Starting El and Incr=2600.13,0.07, 20 
XS HTab Horizontal Distribution= 5 , 5 , 5 
Exp/Cntr=0.3,0.1

Type RM Length L Ch R = 1 ,75.500* ,0.5,0.5,0.5
Node Last Edited Time=Dec/06/2025 18:29:39
#Sta/Elev= 4 
       02601.445   2.9332599.978   7.9332599.978  10.8672601.445
#Mann= 2 ,0,0
       0    .035       0  10.867    .035       0
Bank Sta=0,10.867
XS Rating Curve= 0 ,0
XS HTab Starting El and Incr=2600.13,0.07, 20 
XS HTab Horizontal Distribution= 5 , 5 , 5 
Exp/Cntr=0.3,0.1

Type RM Length L Ch R = 1 ,75.000* ,0.5,0.5,0.5
Node Last Edited Time=Dec/06/2025 18:29:39
#Sta/Elev= 4 
       02601.445   2.9332599.978   7.9332599.978  10.8672601.445
#Mann= 2 ,0,0
       0    .035       0  10.867    .035       0
Bank Sta=0,10.867
XS Rating Curve= 0 ,0
XS HTab Starting El and Incr=2600.13,0.07, 20 
XS HTab Horizontal Distribution= 5 , 5 , 5 
Exp/Cntr=0.3,0.1

Type RM Length L Ch R = 1 ,74.500* ,0.5,0.5,0.5
Node Last Edited Time=Dec/06/2025 18:29:39
#Sta/Elev= 4 
       02601.444   2.9332599.977   7.9332599.977  10.8672601.444
#Mann= 2 ,0,0
       0    .035       0  10.867    .035       0
Bank Sta=0,10.867
XS Rating Curve= 0 ,0
XS HTab Starting El and Incr=2600.13,0.07, 20 
XS HTab Horizontal Distribution= 5 , 5 , 5 
Exp/Cntr=0.3,0.1

Type RM Length L Ch R = 1 ,74.000* ,0.5,0.5,0.5
Node Last Edited Time=Dec/06/2025 18:29:39
#Sta/Elev= 4 
       02601.444   2.9332599.977   7.9332599.977  10.8672601.444
#Mann= 2 ,0,0
       0    .035       0  10.867    .035       0
Bank Sta=0,10.867
XS Rating Curve= 0 ,0
XS HTab Starting El and Incr=2600.13,0.07, 20 
XS HTab Horizontal Distribution= 5 , 5 , 5 
Exp/Cntr=0.3,0.1

Type RM Length L Ch R = 1 ,73.500* ,0.5,0.5,0.5
Node Last Edited Time=Dec/06/2025 18:29:39
#Sta/Elev= 4 
       02601.443   2.9332599.976   7.9332599.976  10.8672601.443
#Mann= 2 ,0,0
       0    .035       0  10.867    .035       0
Bank Sta=0,10.867
XS Rating Curve= 0 ,0
XS HTab Starting El and Incr=2600.13,0.07, 20 
XS HTab Horizontal Distribution= 5 , 5 , 5 
Exp/Cntr=0.3,0.1

Type RM Length L Ch R = 1 ,73.000* ,0.5,0.5,0.5
Node Last Edited Time=Dec/06/2025 18:29:39
#Sta/Elev= 4 
       02601.443   2.9332599.976   7.9332599.976  10.8672601.443
#Mann= 2 ,0,0
       0    .035       0  10.867    .035       0
Bank Sta=0,10.867
XS Rating Curve= 0 ,0
XS HTab Starting El and Incr=2600.13,0.07, 20 
XS HTab Horizontal Distribution= 5 , 5 , 5 
Exp/Cntr=0.3,0.1

Type RM Length L Ch R = 1 ,72.500* ,0.5,0.5,0.5
Node Last Edited Time=Dec/06/2025 18:29:39
#Sta/Elev= 4 
       02601.442   2.9332599.975   7.9332599.975  10.8672601.442
#Mann= 2 ,0,0
       0    .035       0  10.867    .035       0
Bank Sta=0,10.867
XS Rating Curve= 0 ,0
XS HTab Starting El and Incr=2600.13,0.07, 20 
XS HTab Horizontal Distribution= 5 , 5 , 5 
Exp/Cntr=0.3,0.1

Type RM Length L Ch R = 1 ,72.000* ,0.5,0.5,0.5
Node Last Edited Time=Dec/06/2025 18:29:39
#Sta/Elev= 4 
       02601.442   2.9332599.975   7.9332599.975  10.8672601.442
#Mann= 2 ,0,0
       0    .035       0  10.867    .035       0
Bank Sta=0,10.867
XS Rating Curve= 0 ,0
XS HTab Starting El and Incr=2600.12,0.07, 20 
XS HTab Horizontal Distribution= 5 , 5 , 5 
Exp/Cntr=0.3,0.1

Type RM Length L Ch R = 1 ,71.500* ,0.5,0.5,0.5
Node Last Edited Time=Dec/06/2025 18:29:39
#Sta/Elev= 4 
       02601.441   2.9332599.974   7.9332599.974  10.8672601.441
#Mann= 2 ,0,0
       0    .035       0  10.867    .035       0
Bank Sta=0,10.867
XS Rating Curve= 0 ,0
XS HTab Starting El and Incr=2600.12,0.07, 20 
XS HTab Horizontal Distribution= 5 , 5 , 5 
Exp/Cntr=0.3,0.1

Type RM Length L Ch R = 1 ,71.000* ,0.5,0.5,0.5
Node Last Edited Time=Dec/06/2025 18:29:39
#Sta/Elev= 4 
       02601.441   2.9332599.974   7.9332599.974  10.8672601.441
#Mann= 2 ,0,0
       0    .035       0  10.867    .035       0
Bank Sta=0,10.867
XS Rating Curve= 0 ,0
XS HTab Starting El and Incr=2600.12,0.07, 20 
XS HTab Horizontal Distribution= 5 , 5 , 5 
Exp/Cntr=0.3,0.1

Type RM Length L Ch R = 1 ,70.500* ,0.5,0.5,0.5
Node Last Edited Time=Dec/06/2025 18:29:39
#Sta/Elev= 4 
       0 2601.44   2.9332599.973   7.9332599.973  10.867 2601.44
#Mann= 2 ,0,0
       0    .035       0  10.867    .035       0
Bank Sta=0,10.867
XS Rating Curve= 0 ,0
XS HTab Starting El and Incr=2600.12,0.07, 20 
XS HTab Horizontal Distribution= 5 , 5 , 5 
Exp/Cntr=0.3,0.1

Type RM Length L Ch R = 1 ,70.000* ,0.5,0.5,0.5
Node Last Edited Time=Dec/06/2025 18:29:39
#Sta/Elev= 4 
       0 2601.44   2.9332599.973   7.9332599.973  10.867 2601.44
#Mann= 2 ,0,0
       0    .035       0  10.867    .035       0
Bank Sta=0,10.867
XS Rating Curve= 0 ,0
XS HTab Starting El and Incr=2600.12,0.07, 20 
XS HTab Horizontal Distribution= 5 , 5 , 5 
Exp/Cntr=0.3,0.1

Type RM Length L Ch R = 1 ,69.500* ,0.5,0.5,0.5
Node Last Edited Time=Dec/06/2025 18:29:39
#Sta/Elev= 4 
       02601.439   2.9332599.972   7.9332599.972  10.8672601.439
#Mann= 2 ,0,0
       0    .035       0  10.867    .035       0
Bank Sta=0,10.867
XS Rating Curve= 0 ,0
XS HTab Starting El and Incr=2600.12,0.07, 20 
XS HTab Horizontal Distribution= 5 , 5 , 5 
Exp/Cntr=0.3,0.1

Type RM Length L Ch R = 1 ,69.000* ,0.5,0.5,0.5
Node Last Edited Time=Dec/06/2025 18:29:39
#Sta/Elev= 4 
       02601.439   2.9332599.972   7.9332599.972  10.8672601.439
#Mann= 2 ,0,0
       0    .035       0  10.867    .035       0
Bank Sta=0,10.867
XS Rating Curve= 0 ,0
XS HTab Starting El and Incr=2600.12,0.07, 20 
XS HTab Horizontal Distribution= 5 , 5 , 5 
Exp/Cntr=0.3,0.1

Type RM Length L Ch R = 1 ,68.500* ,0.5,0.5,0.5
Node Last Edited Time=Dec/06/2025 18:29:39
#Sta/Elev= 4 
       02601.439   2.9332599.972   7.9332599.972  10.8672601.439
#Mann= 2 ,0,0
       0    .035       0  10.867    .035       0
Bank Sta=0,10.867
XS Rating Curve= 0 ,0
XS HTab Starting El and Incr=2600.12,0.07, 20 
XS HTab Horizontal Distribution= 5 , 5 , 5 
Exp/Cntr=0.3,0.1

Type RM Length L Ch R = 1 ,68.000* ,0.5,0.5,0.5
Node Last Edited Time=Dec/06/2025 18:29:39
#Sta/Elev= 4 
       02601.438   2.9332599.971   7.9332599.971  10.8672601.438
#Mann= 2 ,0,0
       0    .035       0  10.867    .035       0
Bank Sta=0,10.867
XS Rating Curve= 0 ,0
XS HTab Starting El and Incr=2600.12,0.07, 20 
XS HTab Horizontal Distribution= 5 , 5 , 5 
Exp/Cntr=0.3,0.1

Type RM Length L Ch R = 1 ,67.500* ,0.5,0.5,0.5
Node Last Edited Time=Dec/06/2025 18:29:39
#Sta/Elev= 4 
       02601.438   2.9332599.971   7.9332599.971  10.8672601.438
#Mann= 2 ,0,0
       0    .035       0  10.867    .035       0
Bank Sta=0,10.867
XS Rating Curve= 0 ,0
XS HTab Starting El and Incr=2600.12,0.07, 20 
XS HTab Horizontal Distribution= 5 , 5 , 5 
Exp/Cntr=0.3,0.1

Type RM Length L Ch R = 1 ,67.000* ,0.5,0.5,0.5
Node Last Edited Time=Dec/06/2025 18:29:39
#Sta/Elev= 4 
       02601.437   2.933 2599.97   7.933 2599.97  10.8672601.437
#Mann= 2 ,0,0
       0    .035       0  10.867    .035       0
Bank Sta=0,10.867
XS Rating Curve= 0 ,0
XS HTab Starting El and Incr=2600.12,0.07, 20 
XS HTab Horizontal Distribution= 5 , 5 , 5 
Exp/Cntr=0.3,0.1

Type RM Length L Ch R = 1 ,66.500* ,0.5,0.5,0.5
Node Last Edited Time=Dec/06/2025 18:29:39
#Sta/Elev= 4 
       02601.437   2.933 2599.97   7.933 2599.97  10.8672601.437
#Mann= 2 ,0,0
       0    .035       0  10.867    .035       0
Bank Sta=0,10.867
XS Rating Curve= 0 ,0
XS HTab Starting El and Incr=2600.12,0.07, 20 
XS HTab Horizontal Distribution= 5 , 5 , 5 
Exp/Cntr=0.3,0.1

Type RM Length L Ch R = 1 ,66.000* ,0.5,0.5,0.5
Node Last Edited Time=Dec/06/2025 18:29:39
#Sta/Elev= 4 
       02601.437   2.9332599.969   7.9332599.969  10.8672601.437
#Mann= 2 ,0,0
       0    .035       0  10.867    .035       0
Bank Sta=0,10.867
XS Rating Curve= 0 ,0
XS HTab Starting El and Incr=2600.12,0.07, 20 
XS HTab Horizontal Distribution= 5 , 5 , 5 
Exp/Cntr=0.3,0.1

Type RM Length L Ch R = 1 ,65.500* ,0.5,0.5,0.5
Node Last Edited Time=Dec/06/2025 18:29:39
#Sta/Elev= 4 
       02601.436   2.9332599.969   7.9332599.969  10.8672601.436
#Mann= 2 ,0,0
       0    .035       0  10.867    .035       0
Bank Sta=0,10.867
XS Rating Curve= 0 ,0
XS HTab Starting El and Incr=2600.12,0.07, 20 
XS HTab Horizontal Distribution= 5 , 5 , 5 
Exp/Cntr=0.3,0.1

Type RM Length L Ch R = 1 ,65.000* ,0.5,0.5,0.5
Node Last Edited Time=Dec/06/2025 18:29:39
#Sta/Elev= 4 
       02601.436   2.9332599.969   7.9332599.969  10.8672601.436
#Mann= 2 ,0,0
       0    .035       0  10.867    .035       0
Bank Sta=0,10.867
XS Rating Curve= 0 ,0
XS HTab Starting El and Incr=2600.12,0.07, 20 
XS HTab Horizontal Distribution= 5 , 5 , 5 
Exp/Cntr=0.3,0.1

Type RM Length L Ch R = 1 ,64.500* ,0.5,0.5,0.5
Node Last Edited Time=Dec/06/2025 18:29:39
#Sta/Elev= 4 
       02601.435   2.9332599.968   7.9332599.968  10.8672601.435
#Mann= 2 ,0,0
       0    .035       0  10.867    .035       0
Bank Sta=0,10.867
XS Rating Curve= 0 ,0
XS HTab Starting El and Incr=2600.12,0.07, 20 
XS HTab Horizontal Distribution= 5 , 5 , 5 
Exp/Cntr=0.3,0.1

Type RM Length L Ch R = 1 ,64.000* ,0.5,0.5,0.5
Node Last Edited Time=Dec/06/2025 18:29:39
#Sta/Elev= 4 
       02601.435   2.9332599.968   7.9332599.968  10.8672601.435
#Mann= 2 ,0,0
       0    .035       0  10.867    .035       0
Bank Sta=0,10.867
XS Rating Curve= 0 ,0
XS HTab Starting El and Incr=2600.12,0.07, 20 
XS HTab Horizontal Distribution= 5 , 5 , 5 
Exp/Cntr=0.3,0.1

Type RM Length L Ch R = 1 ,63.500* ,0.5,0.5,0.5
Node Last Edited Time=Dec/06/2025 18:29:39
#Sta/Elev= 4 
       02601.434   2.9332599.967   7.9332599.967  10.8672601.434
#Mann= 2 ,0,0
       0    .035       0  10.867    .035       0
Bank Sta=0,10.867
XS Rating Curve= 0 ,0
XS HTab Starting El and Incr=2600.12,0.07, 20 
XS HTab Horizontal Distribution= 5 , 5 , 5 
Exp/Cntr=0.3,0.1

Type RM Length L Ch R = 1 ,63.000* ,0.5,0.5,0.5
Node Last Edited Time=Dec/06/2025 18:29:39
#Sta/Elev= 4 
       02601.434   2.9332599.967   7.9332599.967  10.8672601.434
#Mann= 2 ,0,0
       0    .035       0  10.867    .035       0
Bank Sta=0,10.867
XS Rating Curve= 0 ,0
XS HTab Starting El and Incr=2600.12,0.07, 20 
XS HTab Horizontal Distribution= 5 , 5 , 5 
Exp/Cntr=0.3,0.1

Type RM Length L Ch R = 1 ,62.500* ,0.5,0.5,0.5
Node Last Edited Time=Dec/06/2025 18:29:39
#Sta/Elev= 4 
       02601.433   2.9332599.966   7.9332599.966  10.8672601.433
#Mann= 2 ,0,0
       0    .035       0  10.867    .035       0
Bank Sta=0,10.867
XS Rating Curve= 0 ,0
XS HTab Starting El and Incr=2600.12,0.07, 20 
XS HTab Horizontal Distribution= 5 , 5 , 5 
Exp/Cntr=0.3,0.1

Type RM Length L Ch R = 1 ,62.000* ,0.5,0.5,0.5
Node Last Edited Time=Dec/06/2025 18:29:39
#Sta/Elev= 4 
       02601.433   2.9332599.966   7.9332599.966  10.8672601.433
#Mann= 2 ,0,0
       0    .035       0  10.867    .035       0
Bank Sta=0,10.867
XS Rating Curve= 0 ,0
XS HTab Starting El and Incr=2600.12,0.07, 20 
XS HTab Horizontal Distribution= 5 , 5 , 5 
Exp/Cntr=0.3,0.1

Type RM Length L Ch R = 1 ,61.500* ,0.5,0.5,0.5
Node Last Edited Time=Dec/06/2025 18:29:39
#Sta/Elev= 4 
       02601.432   2.9332599.965   7.9332599.965  10.8672601.432
#Mann= 2 ,0,0
       0    .035       0  10.867    .035       0
Bank Sta=0,10.867
XS Rating Curve= 0 ,0