Geom Title=Geometry2D
Program Version=6.70
Viewing Rectangle= 4999994.9299224 , 5000105.13775405 , 2000008.96500581 , 1999991.03499419 

Storage Area=Perimeter 1     ,,
Storage Area Surface Line= 5 
5000000.141421362000008.00858392                
5000099.858578642000008.00858392                
5000099.858578641999991.99141608                
5000000.141421361999991.99141608                
5000000.141421362000008.00858392                
Storage Area Type= 1 
Storage Area Area=
Storage Area Min Elev=
Storage Area Is2D=-1
Storage Area Point Generation Data=,,0.5,0.5
Storage Area 2D Points= 6360 
5000000.391421362000007.758583925000000.891421362000007.75858392
5000001.391421362000007.758583925000001.891421362000007.75858392
5000002.391421362000007.758583925000002.891421362000007.75858392
5000003.391421362000007.758583925000003.891421362000007.75858392
5000004.391421362000007.758583925000004.891421362000007.75858392
5000005.391421362000007.758583925000005.891421362000007.75858392
5000006.391421362000007.758583925000006.891421362000007.75858392
5000007.391421362000007.758583925000007.891421362000007.75858392
5000008.391421362000007.758583925000008.891421362000007.75858392
5000009.391421362000007.758583925000009.891421362000007.75858392
5000010.391421362000007.758583925000010.891421362000007.75858392
5000011.391421362000007.758583925000011.891421362000007.75858392
5000012.391421362000007.758583925000012.891421362000007.75858392
5000013.391421362000007.758583925000013.891421362000007.75858392
5000014.391421362000007.758583925000014.891421362000007.75858392
5000015.391421362000007.758583925000015.891421362000007.75858392
5000016.391421362000007.758583925000016.891421362000007.75858392
5000017.391421362000007.758583925000017.891421362000007.75858392
5000018.391421362000007.758583925000018.891421362000007.75858392
5000019.391421362000007.758583925000019.891421362000007.75858392
5000020.391421362000007.758583925000020.891421362000007.75858392
5000021.391421362000007.758583925000021.891421362000007.75858392
5000022.391421362000007.758583925000022.891421362000007.75858392
5000023.391421362000007.758583925000023.891421362000007.75858392
5000024.391421362000007.758583925000024.891421362000007.75858392
5000025.391421362000007.758583925000025.891421362000007.75858392
5000026.391421362000007.758583925000026.891421362000007.75858392
5000027.391421362000007.758583925000027.891421362000007.75858392
5000028.391421362000007.758583925000028.891421362000007.75858392
5000029.391421362000007.758583925000029.891421362000007.75858392
5000030.391421362000007.758583925000030.891421362000007.75858392
5000031.391421362000007.758583925000031.891421362000007.75858392
5000032.391421362000007.758583925000032.891421362000007.75858392
5000033.391421362000007.758583925000033.891421362000007.75858392
5000034.391421362000007.758583925000034.891421362000007.75858392
5000035.391421362000007.758583925000035.891421362000007.75858392
5000036.391421362000007.758583925000036.891421362000007.75858392
5000037.391421362000007.758583925000037.891421362000007.75858392
5000038.391421362000007.758583925000038.891421362000007.75858392
5000039.391421362000007.758583925000039.891421362000007.75858392
5000040.391421362000007.758583925000040.891421362000007.75858392
5000041.391421362000007.758583925000041.891421362000007.75858392
5000042.391421362000007.758583925000042.891421362000007.75858392
5000043.391421362000007.758583925000043.891421362000007.75858392
5000044.391421362000007.758583925000044.891421362000007.75858392
5000045.391421362000007.758583925000045.891421362000007.75858392
5000046.391421362000007.758583925000046.891421362000007.75858392
5000047.391421362000007.758583925000047.891421362000007.75858392
5000048.391421362000007.758583925000048.891421362000007.75858392
5000049.391421362000007.758583925000049.891421362000007.75858392
5000050.391421362000007.758583925000050.891421362000007.75858392
5000051.391421362000007.758583925000051.891421362000007.75858392
5000052.391421362000007.758583925000052.891421362000007.75858392
5000053.391421362000007.758583925000053.891421362000007.75858392
5000054.391421362000007.758583925000054.891421362000007.75858392
5000055.391421362000007.758583925000055.891421362000007.75858392
5000056.391421362000007.758583925000056.891421362000007.75858392
5000057.391421362000007.758583925000057.891421362000007.75858392
5000058.391421362000007.758583925000058.891421362000007.75858392
5000059.391421362000007.758583925000059.891421362000007.75858392
5000060.391421362000007.758583925000060.891421362000007.75858392
5000061.391421362000007.758583925000061.891421362000007.75858392
5000062.391421362000007.758583925000062.891421362000007.75858392
5000063.391421362000007.758583925000063.891421362000007.75858392
5000064.391421362000007.758583925000064.891421362000007.75858392
5000065.391421362000007.758583925000065.891421362000007.75858392
5000066.391421362000007.758583925000066.891421362000007.75858392
5000067.391421362000007.758583925000067.891421362000007.75858392
5000068.391421362000007.758583925000068.891421362000007.75858392
5000069.391421362000007.758583925000069.891421362000007.75858392
5000070.391421362000007.758583925000070.891421362000007.75858392
5000071.391421362000007.758583925000071.891421362000007.75858392
5000072.391421362000007.758583925000072.891421362000007.75858392
5000073.391421362000007.758583925000073.891421362000007.75858392
5000074.391421362000007.758583925000074.891421362000007.75858392
5000075.391421362000007.758583925000075.891421362000007.75858392
5000076.391421362000007.758583925000076.891421362000007.75858392
5000077.391421362000007.758583925000077.891421362000007.75858392
5000078.391421362000007.758583925000078.891421362000007.75858392
5000079.391421362000007.758583925000079.891421362000007.75858392
5000080.391421362000007.758583925000080.891421362000007.75858392
5000081.391421362000007.758583925000081.891421362000007.75858392
5000082.391421362000007.758583925000082.891421362000007.75858392
5000083.391421362000007.758583925000083.891421362000007.75858392
5000084.391421362000007.758583925000084.891421362000007.75858392
5000085.391421362000007.758583925000085.891421362000007.75858392
5000086.391421362000007.758583925000086.891421362000007.75858392
5000087.391421362000007.758583925000087.891421362000007.75858392
5000088.391421362000007.758583925000088.891421362000007.75858392
5000089.391421362000007.758583925000089.891421362000007.75858392
5000090.391421362000007.758583925000090.891421362000007.75858392
5000091.391421362000007.758583925000091.891421362000007.75858392
5000092.391421362000007.758583925000092.891421362000007.75858392
5000093.391421362000007.758583925000093.891421362000007.75858392
5000094.391421362000007.758583925000094.891421362000007.75858392
5000095.391421362000007.758583925000095.891421362000007.75858392
5000096.391421362000007.758583925000096.891421362000007.75858392
5000097.391421362000007.758583925000097.891421362000007.75858392
5000098.391421362000007.758583925000098.891421362000007.75858392
5000099.391421362000007.758583925000000.391421362000007.25858392
5000000.891421362000007.258583925000001.391421362000007.25858392
5000001.891421362000007.258583925000002.391421362000007.25858392
5000002.891421362000007.258583925000003.391421362000007.25858392
5000003.891421362000007.258583925000004.391421362000007.25858392
5000004.891421362000007.258583925000005.391421362000007.25858392
5000005.891421362000007.258583925000006.391421362000007.25858392
5000006.891421362000007.258583925000007.391421362000007.25858392
5000007.891421362000007.258583925000008.391421362000007.25858392
5000008.891421362000007.258583925000009.391421362000007.25858392
5000009.891421362000007.258583925000010.391421362000007.25858392
5000010.891421362000007.258583925000011.391421362000007.25858392
5000011.891421362000007.258583925000012.391421362000007.25858392
5000012.891421362000007.258583925000013.391421362000007.25858392
5000013.891421362000007.258583925000014.391421362000007.25858392
5000014.891421362000007.258583925000015.391421362000007.25858392
5000015.891421362000007.258583925000016.391421362000007.25858392
5000016.891421362000007.258583925000017.391421362000007.25858392
5000017.891421362000007.258583925000018.391421362000007.25858392
5000018.891421362000007.258583925000019.391421362000007.25858392
5000019.891421362000007.258583925000020.391421362000007.25858392
5000020.891421362000007.258583925000021.391421362000007.25858392
5000021.891421362000007.258583925000022.391421362000007.25858392
5000022.891421362000007.258583925000023.391421362000007.25858392
5000023.891421362000007.258583925000024.391421362000007.25858392
5000024.891421362000007.258583925000025.391421362000007.25858392
5000025.891421362000007.258583925000026.391421362000007.25858392
5000026.891421362000007.258583925000027.391421362000007.25858392
5000027.891421362000007.258583925000028.391421362000007.25858392
5000028.891421362000007.258583925000029.391421362000007.25858392
5000029.891421362000007.258583925000030.391421362000007.25858392
5000030.891421362000007.258583925000031.391421362000007.25858392
5000031.891421362000007.258583925000032.391421362000007.25858392
5000032.891421362000007.258583925000033.391421362000007.25858392
5000033.891421362000007.258583925000034.391421362000007.25858392
5000034.891421362000007.258583925000035.391421362000007.25858392
5000035.891421362000007.258583925000036.391421362000007.25858392
5000036.891421362000007.258583925000037.391421362000007.25858392
5000037.891421362000007.258583925000038.391421362000007.25858392
5000038.891421362000007.258583925000039.391421362000007.25858392
5000039.891421362000007.258583925000040.391421362000007.25858392
5000040.891421362000007.258583925000041.391421362000007.25858392
5000041.891421362000007.258583925000042.391421362000007.25858392
5000042.891421362000007.258583925000043.391421362000007.25858392
5000043.891421362000007.258583925000044.391421362000007.25858392
5000044.891421362000007.258583925000045.391421362000007.25858392
5000045.891421362000007.258583925000046.391421362000007.25858392
5000046.891421362000007.258583925000047.391421362000007.25858392
5000047.891421362000007.258583925000048.391421362000007.25858392
5000048.891421362000007.258583925000049.391421362000007.25858392
5000049.891421362000007.258583925000050.391421362000007.25858392
5000050.891421362000007.258583925000051.391421362000007.25858392
5000051.891421362000007.258583925000052.391421362000007.25858392
5000052.891421362000007.258583925000053.391421362000007.25858392
5000053.891421362000007.258583925000054.391421362000007.25858392
5000054.891421362000007.258583925000055.391421362000007.25858392
5000055.891421362000007.258583925000056.391421362000007.25858392
5000056.891421362000007.258583925000057.391421362000007.25858392
5000057.891421362000007.258583925000058.391421362000007.25858392
5000058.891421362000007.258583925000059.391421362000007.25858392
5000059.891421362000007.258583925000060.391421362000007.25858392
5000060.891421362000007.258583925000061.391421362000007.25858392
5000061.891421362000007.258583925000062.391421362000007.25858392
5000062.891421362000007.258583925000063.391421362000007.25858392
5000063.891421362000007.258583925000064.391421362000007.25858392
5000064.891421362000007.258583925000065.391421362000007.25858392
5000065.891421362000007.258583925000066.391421362000007.25858392
5000066.891421362000007.258583925000067.391421362000007.25858392
5000067.891421362000007.258583925000068.391421362000007.25858392
5000068.891421362000007.258583925000069.391421362000007.25858392
5000069.891421362000007.258583925000070.391421362000007.25858392
5000070.891421362000007.258583925000071.391421362000007.25858392
5000071.891421362000007.258583925000072.391421362000007.25858392
5000072.891421362000007.258583925000073.391421362000007.25858392
5000073.891421362000007.258583925000074.391421362000007.25858392
5000074.891421362000007.258583925000075.391421362000007.25858392
5000075.891421362000007.258583925000076.391421362000007.25858392
5000076.891421362000007.258583925000077.391421362000007.25858392
5000077.891421362000007.258583925000078.391421362000007.25858392
5000078.891421362000007.258583925000079.391421362000007.25858392
5000079.891421362000007.258583925000080.391421362000007.25858392
5000080.891421362000007.258583925000081.391421362000007.25858392
5000081.891421362000007.258583925000082.391421362000007.25858392
5000082.891421362000007.258583925000083.391421362000007.25858392
5000083.891421362000007.258583925000084.391421362000007.25858392
5000084.891421362000007.258583925000085.391421362000007.25858392
5000085.891421362000007.258583925000086.391421362000007.25858392
5000086.891421362000007.258583925000087.391421362000007.25858392
5000087.891421362000007.258583925000088.391421362000007.25858392
5000088.891421362000007.258583925000089.391421362000007.25858392
5000089.891421362000007.258583925000090.391421362000007.25858392
5000090.891421362000007.258583925000091.391421362000007.25858392
5000091.891421362000007.258583925000092.391421362000007.25858392
5000092.891421362000007.258583925000093.391421362000007.25858392
5000093.891421362000007.258583925000094.391421362000007.25858392
5000094.891421362000007.258583925000095.391421362000007.25858392
5000095.891421362000007.258583925000096.391421362000007.25858392
5000096.891421362000007.258583925000097.391421362000007.25858392
5000097.891421362000007.258583925000098.391421362000007.25858392
5000098.891421362000007.258583925000099.391421362000007.25858392
5000000.391421362000006.758583925000000.891421362000006.75858392
5000001.391421362000006.758583925000001.891421362000006.75858392
5000002.391421362000006.758583925000002.891421362000006.75858392
5000003.391421362000006.758583925000003.891421362000006.75858392
5000004.391421362000006.758583925000004.891421362000006.75858392
5000005.391421362000006.758583925000005.891421362000006.75858392
5000006.391421362000006.758583925000006.891421362000006.75858392
5000007.391421362000006.758583925000007.891421362000006.75858392
5000008.391421362000006.758583925000008.891421362000006.75858392
5000009.391421362000006.758583925000009.891421362000006.75858392
5000010.391421362000006.758583925000010.891421362000006.75858392
5000011.391421362000006.758583925000011.891421362000006.75858392
5000012.391421362000006.758583925000012.891421362000006.75858392
5000013.391421362000006.758583925000013.891421362000006.75858392
5000014.391421362000006.758583925000014.891421362000006.75858392
5000015.391421362000006.758583925000015.891421362000006.75858392
5000016.391421362000006.758583925000016.891421362000006.75858392
5000017.391421362000006.758583925000017.891421362000006.75858392
5000018.391421362000006.758583925000018.891421362000006.75858392
5000019.391421362000006.758583925000019.891421362000006.75858392
5000020.391421362000006.758583925000020.891421362000006.75858392
5000021.391421362000006.758583925000021.891421362000006.75858392
5000022.391421362000006.758583925000022.891421362000006.75858392
5000023.391421362000006.758583925000023.891421362000006.75858392
5000024.391421362000006.758583925000024.891421362000006.75858392
5000025.391421362000006.758583925000025.891421362000006.75858392
5000026.391421362000006.758583925000026.891421362000006.75858392
5000027.391421362000006.758583925000027.891421362000006.75858392
5000028.391421362000006.758583925000028.891421362000006.75858392
5000029.391421362000006.758583925000029.891421362000006.75858392
5000030.391421362000006.758583925000030.891421362000006.75858392
5000031.391421362000006.758583925000031.891421362000006.75858392
5000032.391421362000006.758583925000032.891421362000006.75858392
5000033.391421362000006.758583925000033.891421362000006.75858392
5000034.391421362000006.758583925000034.891421362000006.75858392
5000035.391421362000006.758583925000035.891421362000006.75858392
5000036.391421362000006.758583925000036.891421362000006.75858392
5000037.391421362000006.758583925000037.891421362000006.75858392
5000038.391421362000006.758583925000038.891421362000006.75858392
5000039.391421362000006.758583925000039.891421362000006.75858392
5000040.391421362000006.758583925000040.891421362000006.75858392
5000041.391421362000006.758583925000041.891421362000006.75858392
5000042.391421362000006.758583925000042.891421362000006.75858392
5000043.391421362000006.758583925000043.891421362000006.75858392
5000044.391421362000006.758583925000044.891421362000006.75858392
5000045.391421362000006.758583925000045.891421362000006.75858392
5000046.391421362000006.758583925000046.891421362000006.75858392
5000047.391421362000006.758583925000047.891421362000006.75858392
5000048.391421362000006.758583925000048.891421362000006.75858392
5000049.391421362000006.758583925000049.891421362000006.75858392
5000050.391421362000006.758583925000050.891421362000006.75858392
5000051.391421362000006.758583925000051.891421362000006.75858392
5000052.391421362000006.758583925000052.891421362000006.75858392
5000053.391421362000006.758583925000053.891421362000006.75858392
5000054.391421362000006.758583925000054.891421362000006.75858392
5000055.391421362000006.758583925000055.891421362000006.75858392
5000056.391421362000006.758583925000056.891421362000006.75858392
5000057.391421362000006.758583925000057.891421362000006.75858392
5000058.391421362000006.758583925000058.891421362000006.75858392
5000059.391421362000006.758583925000059.891421362000006.75858392
5000060.391421362000006.758583925000060.891421362000006.75858392
5000061.391421362000006.758583925000061.891421362000006.75858392
5000062.391421362000006.758583925000062.891421362000006.75858392
5000063.391421362000006.758583925000063.891421362000006.75858392
5000064.391421362000006.758583925000064.891421362000006.75858392
5000065.391421362000006.758583925000065.891421362000006.75858392
5000066.391421362000006.758583925000066.891421362000006.75858392
5000067.391421362000006.758583925000067.891421362000006.75858392
5000068.391421362000006.758583925000068.891421362000006.75858392
5000069.391421362000006.758583925000069.891421362000006.75858392
5000070.391421362000006.758583925000070.891421362000006.75858392
5000071.391421362000006.758583925000071.891421362000006.75858392
5000072.391421362000006.758583925000072.891421362000006.75858392
5000073.391421362000006.758583925000073.891421362000006.75858392
5000074.391421362000006.758583925000074.891421362000006.75858392
5000075.391421362000006.758583925000075.891421362000006.75858392
5000076.391421362000006.758583925000076.891421362000006.75858392
5000077.391421362000006.758583925000077.891421362000006.75858392
5000078.391421362000006.758583925000078.891421362000006.75858392
5000079.391421362000006.758583925000079.891421362000006.75858392
5000080.391421362000006.758583925000080.891421362000006.75858392
5000081.391421362000006.758583925000081.891421362000006.75858392
5000082.391421362000006.758583925000082.891421362000006.75858392
5000083.391421362000006.758583925000083.891421362000006.75858392
5000084.391421362000006.758583925000084.891421362000006.75858392
5000085.391421362000006.758583925000085.891421362000006.75858392
5000086.391421362000006.758583925000086.891421362000006.75858392
5000087.391421362000006.758583925000087.891421362000006.75858392
5000088.391421362000006.758583925000088.891421362000006.75858392
5000089.391421362000006.758583925000089.891421362000006.75858392
5000090.391421362000006.758583925000090.891421362000006.75858392
5000091.391421362000006.758583925000091.891421362000006.75858392
5000092.391421362000006.758583925000092.891421362000006.75858392
5000093.391421362000006.758583925000093.891421362000006.75858392
5000094.391421362000006.758583925000094.891421362000006.75858392
5000095.391421362000006.758583925000095.891421362000006.75858392
5000096.391421362000006.758583925000096.891421362000006.75858392
5000097.391421362000006.758583925000097.891421362000006.75858392
5000098.391421362000006.758583925000098.891421362000006.75858392
5000099.391421362000006.758583925000000.391421362000006.25858392
5000000.891421362000006.258583925000001.391421362000006.25858392
5000001.891421362000006.258583925000002.391421362000006.25858392
5000002.891421362000006.258583925000003.391421362000006.25858392
5000003.891421362000006.258583925000004.391421362000006.25858392
5000004.891421362000006.258583925000005.391421362000006.25858392
5000005.891421362000006.258583925000006.391421362000006.25858392
5000006.891421362000006.258583925000007.391421362000006.25858392
5000007.891421362000006.258583925000008.391421362000006.25858392
5000008.891421362000006.258583925000009.391421362000006.25858392
5000009.891421362000006.258583925000010.391421362000006.25858392
5000010.891421362000006.258583925000011.391421362000006.25858392
5000011.891421362000006.258583925000012.391421362000006.25858392
5000012.891421362000006.258583925000013.391421362000006.25858392
5000013.891421362000006.258583925000014.391421362000006.25858392
5000014.891421362000006.258583925000015.391421362000006.25858392
5000015.891421362000006.258583925000016.391421362000006.25858392
5000016.891421362000006.258583925000017.391421362000006.25858392
5000017.891421362000006.258583925000018.391421362000006.25858392
5000018.891421362000006.258583925000019.391421362000006.25858392
5000019.891421362000006.258583925000020.391421362000006.25858392
5000020.891421362000006.258583925000021.391421362000006.25858392
5000021.891421362000006.258583925000022.391421362000006.25858392
5000022.891421362000006.258583925000023.391421362000006.25858392
5000023.891421362000006.258583925000024.391421362000006.25858392
5000024.891421362000006.258583925000025.391421362000006.25858392
5000025.891421362000006.258583925000026.391421362000006.25858392
5000026.891421362000006.258583925000027.391421362000006.25858392
5000027.891421362000006.258583925000028.391421362000006.25858392
5000028.891421362000006.258583925000029.391421362000006.25858392
5000029.891421362000006.258583925000030.391421362000006.25858392
5000030.891421362000006.258583925000031.391421362000006.25858392
5000031.891421362000006.258583925000032.391421362000006.25858392
5000032.891421362000006.258583925000033.391421362000006.25858392
5000033.891421362000006.258583925000034.391421362000006.25858392
5000034.891421362000006.258583925000035.391421362000006.25858392
5000035.891421362000006.258583925000036.391421362000006.25858392
5000036.891421362000006.258583925000037.391421362000006.25858392
5000037.891421362000006.258583925000038.391421362000006.25858392
5000038.891421362000006.258583925000039.391421362000006.25858392
5000039.891421362000006.258583925000040.391421362000006.25858392
5000040.891421362000006.258583925000041.391421362000006.25858392
5000041.891421362000006.258583925000042.391421362000006.25858392
5000042.891421362000006.258583925000043.391421362000006.25858392
5000043.891421362000006.258583925000044.391421362000006.25858392
5000044.891421362000006.258583925000045.391421362000006.25858392
5000045.891421362000006.258583925000046.391421362000006.25858392
5000046.891421362000006.258583925000047.391421362000006.25858392
5000047.891421362000006.258583925000048.391421362000006.25858392
5000048.891421362000006.258583925000049.391421362000006.25858392
5000049.891421362000006.258583925000050.391421362000006.25858392
5000050.891421362000006.258583925000051.391421362000006.25858392
5000051.891421362000006.258583925000052.391421362000006.25858392
5000052.891421362000006.258583925000053.391421362000006.25858392
5000053.891421362000006.258583925000054.391421362000006.25858392
5000054.891421362000006.258583925000055.391421362000006.25858392
5000055.891421362000006.258583925000056.391421362000006.25858392
5000056.891421362000006.258583925000057.391421362000006.25858392
5000057.891421362000006.258583925000058.391421362000006.25858392
5000058.891421362000006.258583925000059.391421362000006.25858392
5000059.891421362000006.258583925000060.391421362000006.25858392
5000060.891421362000006.258583925000061.391421362000006.25858392
5000061.891421362000006.258583925000062.391421362000006.25858392
5000062.891421362000006.258583925000063.391421362000006.25858392
5000063.891421362000006.258583925000064.391421362000006.25858392
5000064.891421362000006.258583925000065.391421362000006.25858392
5000065.891421362000006.258583925000066.391421362000006.25858392
5000066.891421362000006.258583925000067.391421362000006.25858392
5000067.891421362000006.258583925000068.391421362000006.25858392
5000068.891421362000006.258583925000069.391421362000006.25858392
5000069.891421362000006.258583925000070.391421362000006.25858392
5000070.891421362000006.258583925000071.391421362000006.25858392
5000071.891421362000006.258583925000072.391421362000006.25858392
5000072.891421362000006.258583925000073.391421362000006.25858392
5000073.891421362000006.258583925000074.391421362000006.25858392
5000074.891421362000006.258583925000075.391421362000006.25858392
5000075.891421362000006.258583925000076.391421362000006.25858392
5000076.891421362000006.258583925000077.391421362000006.25858392
5000077.891421362000006.258583925000078.391421362000006.25858392
5000078.891421362000006.258583925000079.391421362000006.25858392
5000079.891421362000006.258583925000080.391421362000006.25858392
5000080.891421362000006.258583925000081.391421362000006.25858392
5000081.891421362000006.258583925000082.391421362000006.25858392
5000082.891421362000006.258583925000083.391421362000006.25858392
5000083.891421362000006.258583925000084.391421362000006.25858392
5000084.891421362000006.258583925000085.391421362000006.25858392
5000085.891421362000006.258583925000086.391421362000006.25858392
5000086.891421362000006.258583925000087.391421362000006.25858392
5000087.891421362000006.258583925000088.391421362000006.25858392
5000088.891421362000006.258583925000089.391421362000006.25858392
5000089.891421362000006.258583925000090.391421362000006.25858392
5000090.891421362000006.258583925000091.391421362000006.25858392
5000091.891421362000006.258583925000092.391421362000006.25858392
5000092.891421362000006.258583925000093.391421362000006.25858392
5000093.891421362000006.258583925000094.391421362000006.25858392
5000094.891421362000006.258583925000095.391421362000006.25858392
5000095.891421362000006.258583925000096.391421362000006.25858392
5000096.891421362000006.258583925000097.391421362000006.25858392
5000097.891421362000006.258583925000098.391421362000006.25858392
5000098.891421362000006.258583925000099.391421362000006.25858392
5000000.391421362000004.758583925000000.891421362000004.75858392
5000001.391421362000004.758583925000001.891421362000004.75858392
5000002.391421362000004.758583925000002.891421362000004.75858392
5000003.391421362000004.758583925000003.891421362000004.75858392
5000004.391421362000004.758583925000004.891421362000004.75858392
5000005.391421362000004.758583925000005.891421362000004.75858392
5000006.391421362000004.758583925000006.891421362000004.75858392
5000007.391421362000004.758583925000007.891421362000004.75858392
5000008.391421362000004.758583925000008.891421362000004.75858392
5000009.391421362000004.758583925000009.891421362000004.75858392
5000010.391421362000004.758583925000010.891421362000004.75858392
5000011.391421362000004.758583925000011.891421362000004.75858392
5000012.391421362000004.758583925000012.891421362000004.75858392
5000013.391421362000004.758583925000013.891421362000004.75858392
5000014.391421362000004.758583925000014.891421362000004.75858392
5000015.391421362000004.758583925000015.891421362000004.75858392
5000016.391421362000004.758583925000016.891421362000004.75858392
5000017.391421362000004.758583925000017.891421362000004.75858392
5000018.391421362000004.758583925000018.891421362000004.75858392
5000019.391421362000004.758583925000019.891421362000004.75858392
5000020.391421362000004.758583925000020.891421362000004.75858392
5000021.391421362000004.758583925000021.891421362000004.75858392
5000022.391421362000004.758583925000022.891421362000004.75858392
5000023.391421362000004.758583925000023.891421362000004.75858392
5000024.391421362000004.758583925000024.891421362000004.75858392
5000025.391421362000004.758583925000025.891421362000004.75858392
5000026.391421362000004.758583925000026.891421362000004.75858392
5000027.391421362000004.758583925000027.891421362000004.75858392
5000028.391421362000004.758583925000028.891421362000004.75858392
5000029.391421362000004.758583925000029.891421362000004.75858392
5000030.391421362000004.758583925000030.891421362000004.75858392
5000031.391421362000004.758583925000031.891421362000004.75858392
5000032.391421362000004.758583925000032.891421362000004.75858392
5000033.391421362000004.758583925000033.891421362000004.75858392
5000034.391421362000004.758583925000034.891421362000004.75858392
5000035.391421362000004.758583925000035.891421362000004.75858392
5000036.391421362000004.758583925000036.891421362000004.75858392
5000037.391421362000004.758583925000037.891421362000004.75858392
5000038.391421362000004.758583925000038.891421362000004.75858392
5000039.391421362000004.758583925000039.891421362000004.75858392
5000040.391421362000004.758583925000040.891421362000004.75858392
5000041.391421362000004.758583925000041.891421362000004.75858392
5000042.391421362000004.758583925000042.891421362000004.75858392
5000043.391421362000004.758583925000043.891421362000004.75858392
5000044.391421362000004.758583925000044.891421362000004.75858392
5000045.391421362000004.758583925000045.891421362000004.75858392
5000046.391421362000004.758583925000046.891421362000004.75858392
5000047.391421362000004.758583925000047.891421362000004.75858392
5000048.391421362000004.758583925000048.891421362000004.75858392
5000049.391421362000004.758583925000049.891421362000004.75858392
5000050.391421362000004.758583925000050.891421362000004.75858392
5000051.391421362000004.758583925000051.891421362000004.75858392
5000052.391421362000004.758583925000052.891421362000004.75858392
5000053.391421362000004.758583925000053.891421362000004.75858392