Geom Title=Geometry2D
Program Version=6.70
Viewing Rectangle= 4999994.9299224 , 5000105.13775405 , 2000008.96500581 , 1999991.03499419 

Storage Area=Perimeter 1     ,,
Storage Area Surface Line= 5 
5000000.141421362000008.00858392                
5000099.858578642000008.00858392                
5000099.858578641999991.99141608                
5000000.141421361999991.99141608                
5000000.141421362000008.00858392                
Storage Area Type= 1 
Storage Area Area=
Storage Area Min Elev=
Storage Area Is2D=-1
Storage Area Point Generation Data=,,1,1
Storage Area 2D Points= 1196 
5000000.641421362000007.508583925000001.641421362000007.50858392
5000002.641421362000007.508583925000003.641421362000007.50858392
5000004.641421362000007.508583925000005.641421362000007.50858392
5000006.641421362000007.508583925000007.641421362000007.50858392
5000008.641421362000007.508583925000009.641421362000007.50858392
5000010.641421362000007.508583925000011.641421362000007.50858392
5000012.641421362000007.508583925000013.641421362000007.50858392
5000014.641421362000007.508583925000015.641421362000007.50858392
5000016.641421362000007.508583925000017.641421362000007.50858392
5000018.641421362000007.508583925000019.641421362000007.50858392
5000020.641421362000007.508583925000021.641421362000007.50858392
5000022.641421362000007.508583925000023.641421362000007.50858392
5000024.641421362000007.508583925000025.641421362000007.50858392
5000026.641421362000007.508583925000027.641421362000007.50858392
5000028.641421362000007.508583925000029.641421362000007.50858392
5000030.641421362000007.508583925000031.641421362000007.50858392
5000032.641421362000007.508583925000033.641421362000007.50858392
5000034.641421362000007.508583925000035.641421362000007.50858392
5000036.641421362000007.508583925000037.641421362000007.50858392
5000038.641421362000007.508583925000039.641421362000007.50858392
5000040.641421362000007.508583925000041.641421362000007.50858392
5000042.641421362000007.508583925000043.641421362000007.50858392
5000044.641421362000007.508583925000045.641421362000007.50858392
5000046.641421362000007.508583925000047.641421362000007.50858392
5000048.641421362000007.508583925000049.641421362000007.50858392
5000050.641421362000007.508583925000051.641421362000007.50858392
5000052.641421362000007.508583925000053.641421362000007.50858392
5000054.641421362000007.508583925000055.641421362000007.50858392
5000056.641421362000007.508583925000057.641421362000007.50858392
5000058.641421362000007.508583925000059.641421362000007.50858392
5000060.641421362000007.508583925000061.641421362000007.50858392
5000062.641421362000007.508583925000063.641421362000007.50858392
5000064.641421362000007.508583925000065.641421362000007.50858392
5000066.641421362000007.508583925000067.641421362000007.50858392
5000068.641421362000007.508583925000069.641421362000007.50858392
5000070.641421362000007.508583925000071.641421362000007.50858392
5000072.641421362000007.508583925000073.641421362000007.50858392
5000074.641421362000007.508583925000075.641421362000007.50858392
5000076.641421362000007.508583925000077.641421362000007.50858392
5000078.641421362000007.508583925000079.641421362000007.50858392
5000080.641421362000007.508583925000081.641421362000007.50858392
5000082.641421362000007.508583925000083.641421362000007.50858392
5000084.641421362000007.508583925000085.641421362000007.50858392
5000086.641421362000007.508583925000087.641421362000007.50858392
5000088.641421362000007.508583925000089.641421362000007.50858392
5000090.641421362000007.508583925000091.641421362000007.50858392
5000092.641421362000007.508583925000093.641421362000007.50858392
5000094.641421362000007.508583925000095.641421362000007.50858392
5000096.641421362000007.508583925000097.641421362000007.50858392
5000098.641421362000007.508583925000000.641421362000000.50858392
5000001.641421362000000.508583925000002.641421362000000.50858392
5000003.641421362000000.508583925000004.641421362000000.50858392
5000005.641421362000000.508583925000006.641421362000000.50858392
5000007.641421362000000.508583925000008.641421362000000.50858392
5000009.641421362000000.508583925000010.641421362000000.50858392
5000011.641421362000000.508583925000012.641421362000000.50858392
5000013.641421362000000.508583925000014.641421362000000.50858392
5000015.641421362000000.508583925000016.641421362000000.50858392
5000017.641421362000000.508583925000018.641421362000000.50858392
5000019.641421362000000.508583925000020.641421362000000.50858392
5000021.641421362000000.508583925000022.641421362000000.50858392
5000023.641421362000000.508583925000024.641421362000000.50858392
5000025.641421362000000.508583925000026.641421362000000.50858392
5000027.641421362000000.508583925000028.641421362000000.50858392
5000029.641421362000000.508583925000030.641421362000000.50858392
5000031.641421362000000.508583925000032.641421362000000.50858392
5000033.641421362000000.508583925000034.641421362000000.50858392
5000035.641421362000000.508583925000036.641421362000000.50858392
5000037.641421362000000.508583925000038.641421362000000.50858392
5000039.641421362000000.508583925000040.641421362000000.50858392
5000041.641421362000000.508583925000042.641421362000000.50858392
5000043.641421362000000.508583925000044.641421362000000.50858392
5000045.641421362000000.508583925000046.641421362000000.50858392
5000047.641421362000000.508583925000048.641421362000000.50858392
5000049.641421362000000.508583925000050.641421362000000.50858392
5000051.641421362000000.508583925000052.641421362000000.50858392
5000053.641421362000000.508583925000054.641421362000000.50858392
5000055.641421362000000.508583925000056.641421362000000.50858392
5000057.641421362000000.508583925000058.641421362000000.50858392
5000059.641421362000000.508583925000060.641421362000000.50858392
5000061.641421362000000.508583925000062.641421362000000.50858392
5000063.641421362000000.508583925000064.641421362000000.50858392
5000065.641421362000000.508583925000066.641421362000000.50858392
5000067.641421362000000.508583925000068.641421362000000.50858392
5000069.641421362000000.508583925000070.641421362000000.50858392
5000071.641421362000000.508583925000072.641421362000000.50858392
5000073.641421362000000.508583925000074.641421362000000.50858392
5000075.641421362000000.508583925000076.641421362000000.50858392
5000077.641421362000000.508583925000078.641421362000000.50858392
5000079.641421362000000.508583925000080.641421362000000.50858392
5000081.641421362000000.508583925000082.641421362000000.50858392
5000083.641421362000000.508583925000084.641421362000000.50858392
5000085.641421362000000.508583925000086.641421362000000.50858392
5000087.641421362000000.508583925000088.641421362000000.50858392
5000089.641421362000000.508583925000090.641421362000000.50858392
5000091.641421362000000.508583925000092.641421362000000.50858392
5000093.641421362000000.508583925000094.641421362000000.50858392
5000095.641421362000000.508583925000096.641421362000000.50858392
5000097.641421362000000.508583925000098.641421362000000.50858392
5000000.641421361999999.508583925000001.641421361999999.50858392
5000002.641421361999999.508583925000003.641421361999999.50858392
5000004.641421361999999.508583925000005.641421361999999.50858392
5000006.641421361999999.508583925000007.641421361999999.50858392
5000008.641421361999999.508583925000009.641421361999999.50858392
5000010.641421361999999.508583925000011.641421361999999.50858392
5000012.641421361999999.508583925000013.641421361999999.50858392
5000014.641421361999999.508583925000015.641421361999999.50858392
5000016.641421361999999.508583925000017.641421361999999.50858392
5000018.641421361999999.508583925000019.641421361999999.50858392
5000020.641421361999999.508583925000021.641421361999999.50858392
5000022.641421361999999.508583925000023.641421361999999.50858392
5000024.641421361999999.508583925000025.641421361999999.50858392
5000026.641421361999999.508583925000027.641421361999999.50858392
5000028.641421361999999.508583925000029.641421361999999.50858392
5000030.641421361999999.508583925000031.641421361999999.50858392
5000032.641421361999999.508583925000033.641421361999999.50858392
5000034.641421361999999.508583925000035.641421361999999.50858392
5000036.641421361999999.508583925000037.641421361999999.50858392
5000038.641421361999999.508583925000039.641421361999999.50858392
5000040.641421361999999.508583925000041.641421361999999.50858392
5000042.641421361999999.508583925000043.641421361999999.50858392
5000044.641421361999999.508583925000045.641421361999999.50858392
5000046.641421361999999.508583925000047.641421361999999.50858392
5000048.641421361999999.508583925000049.641421361999999.50858392
5000050.641421361999999.508583925000051.641421361999999.50858392
5000052.641421361999999.508583925000053.641421361999999.50858392
5000054.641421361999999.508583925000055.641421361999999.50858392
5000056.641421361999999.508583925000057.641421361999999.50858392
5000058.641421361999999.508583925000059.641421361999999.50858392
5000060.641421361999999.508583925000061.641421361999999.50858392
5000062.641421361999999.508583925000063.641421361999999.50858392
5000064.641421361999999.508583925000065.641421361999999.50858392
5000066.641421361999999.508583925000067.641421361999999.50858392
5000068.641421361999999.508583925000069.641421361999999.50858392
5000070.641421361999999.508583925000071.641421361999999.50858392
5000072.641421361999999.508583925000073.641421361999999.50858392
5000074.641421361999999.508583925000075.641421361999999.50858392
5000076.641421361999999.508583925000077.641421361999999.50858392
5000078.641421361999999.508583925000079.641421361999999.50858392
5000080.641421361999999.508583925000081.641421361999999.50858392
5000082.641421361999999.508583925000083.641421361999999.50858392
5000084.641421361999999.508583925000085.641421361999999.50858392
5000086.641421361999999.508583925000087.641421361999999.50858392
5000088.641421361999999.508583925000089.641421361999999.50858392
5000090.641421361999999.508583925000091.641421361999999.50858392
5000092.641421361999999.508583925000093.641421361999999.50858392
5000094.641421361999999.508583925000095.641421361999999.50858392
5000096.641421361999999.508583925000097.641421361999999.50858392
5000098.641421361999999.508583925000000.641421361999992.50858392
5000001.641421361999992.508583925000002.641421361999992.50858392
5000003.641421361999992.508583925000004.641421361999992.50858392
5000005.641421361999992.508583925000006.641421361999992.50858392
5000007.641421361999992.508583925000008.641421361999992.50858392
5000009.641421361999992.508583925000010.641421361999992.50858392
5000011.641421361999992.508583925000012.641421361999992.50858392
5000013.641421361999992.508583925000014.641421361999992.50858392
5000015.641421361999992.508583925000016.641421361999992.50858392
5000017.641421361999992.508583925000018.641421361999992.50858392
5000019.641421361999992.508583925000020.641421361999992.50858392
5000021.641421361999992.508583925000022.641421361999992.50858392
5000023.641421361999992.508583925000024.641421361999992.50858392
5000025.641421361999992.508583925000026.641421361999992.50858392
5000027.641421361999992.508583925000028.641421361999992.50858392
5000029.641421361999992.508583925000030.641421361999992.50858392
5000031.641421361999992.508583925000032.641421361999992.50858392
5000033.641421361999992.508583925000034.641421361999992.50858392
5000035.641421361999992.508583925000036.641421361999992.50858392
5000037.641421361999992.508583925000038.641421361999992.50858392
5000039.641421361999992.508583925000040.641421361999992.50858392
5000041.641421361999992.508583925000042.641421361999992.50858392
5000043.641421361999992.508583925000044.641421361999992.50858392
5000045.641421361999992.508583925000046.641421361999992.50858392
5000047.641421361999992.508583925000048.641421361999992.50858392
5000049.641421361999992.508583925000050.641421361999992.50858392
5000051.641421361999992.508583925000052.641421361999992.50858392
5000053.641421361999992.508583925000054.641421361999992.50858392
5000055.641421361999992.508583925000056.641421361999992.50858392
5000057.641421361999992.508583925000058.641421361999992.50858392
5000059.641421361999992.508583925000060.641421361999992.50858392
5000061.641421361999992.508583925000062.641421361999992.50858392
5000063.641421361999992.508583925000064.641421361999992.50858392
5000065.641421361999992.508583925000066.641421361999992.50858392
5000067.641421361999992.508583925000068.641421361999992.50858392
5000069.641421361999992.508583925000070.641421361999992.50858392
5000071.641421361999992.508583925000072.641421361999992.50858392
5000073.641421361999992.508583925000074.641421361999992.50858392
5000075.641421361999992.508583925000076.641421361999992.50858392
5000077.641421361999992.508583925000078.641421361999992.50858392
5000079.641421361999992.508583925000080.641421361999992.50858392
5000081.641421361999992.508583925000082.641421361999992.50858392
5000083.641421361999992.508583925000084.641421361999992.50858392
5000085.641421361999992.508583925000086.641421361999992.50858392
5000087.641421361999992.508583925000088.641421361999992.50858392
5000089.641421361999992.508583925000090.641421361999992.50858392
5000091.641421361999992.508583925000092.641421361999992.50858392
5000093.641421361999992.508583925000094.641421361999992.50858392
5000095.641421361999992.508583925000096.641421361999992.50858392
5000097.641421361999992.508583925000098.641421361999992.50858392
       5000000.51999995.06666315       5000001.51999995.06666315
       5000002.51999995.06666315       5000003.51999995.06666315
       5000004.51999995.06666315       5000005.51999995.06666315
       5000006.51999995.06666315       5000007.51999995.06666315
       5000008.51999995.06666315       5000009.51999995.06666315
       5000010.51999995.06666315       5000011.51999995.06666315
       5000012.51999995.06666315       5000013.51999995.06666315
       5000014.51999995.06666315       5000015.51999995.06666315
       5000016.51999995.06666315       5000017.51999995.06666315
       5000018.51999995.06666315       5000019.51999995.06666315
       5000020.51999995.06666315       5000021.51999995.06666315
       5000022.51999995.06666315       5000023.51999995.06666315
       5000024.51999995.06666315       5000025.51999995.06666315
       5000026.51999995.06666315       5000027.51999995.06666315
       5000028.51999995.06666315       5000029.51999995.06666315
       5000030.51999995.06666315       5000031.51999995.06666315
       5000032.51999995.06666315       5000033.51999995.06666315
       5000034.51999995.06666315       5000035.51999995.06666315
       5000036.51999995.06666315       5000037.51999995.06666315
       5000038.51999995.06666315       5000039.51999995.06666315
       5000040.51999995.06666315       5000041.51999995.06666315
       5000042.51999995.06666315       5000043.51999995.06666315
       5000044.51999995.06666315       5000045.51999995.06666315
       5000046.51999995.06666315       5000047.51999995.06666315
       5000048.51999995.06666315       5000049.51999995.06666315
       5000050.51999995.06666315       5000051.51999995.06666315
       5000052.51999995.06666315       5000053.51999995.06666315
       5000054.51999995.06666315       5000055.51999995.06666315
       5000056.51999995.06666315       5000057.51999995.06666315
       5000058.51999995.06666315       5000059.51999995.06666315
       5000060.51999995.06666315       5000061.51999995.06666315
       5000062.51999995.06666315       5000063.51999995.06666315
       5000064.51999995.06666315       5000065.51999995.06666315
       5000066.51999995.06666315       5000067.51999995.06666315
       5000068.51999995.06666315       5000069.51999995.06666315
       5000070.51999995.06666315       5000071.51999995.06666315
       5000072.51999995.06666315       5000073.51999995.06666315
       5000074.51999995.06666315       5000075.51999995.06666315
       5000076.51999995.06666315       5000077.51999995.06666315
       5000078.51999995.06666315       5000079.51999995.06666315
       5000080.51999995.06666315       5000081.51999995.06666315
       5000082.51999995.06666315       5000083.51999995.06666315
       5000084.51999995.06666315       5000085.51999995.06666315
       5000086.51999995.06666315       5000087.51999995.06666315
       5000088.51999995.06666315       5000089.51999995.06666315
       5000090.51999995.06666315       5000091.51999995.06666315
       5000092.51999995.06666315       5000093.51999995.06666315
       5000094.51999995.06666315       5000095.51999995.06666315
       5000096.51999995.06666315       5000097.51999995.06666315
       5000098.51999995.06666315       5000099.51999995.06666315
       5000000.51999994.06666315       5000001.51999994.06666315
       5000002.51999994.06666315       5000003.51999994.06666315
       5000004.51999994.06666315       5000005.51999994.06666315
       5000006.51999994.06666315       5000007.51999994.06666315
       5000008.51999994.06666315       5000009.51999994.06666315
       5000010.51999994.06666315       5000011.51999994.06666315
       5000012.51999994.06666315       5000013.51999994.06666315
       5000014.51999994.06666315       5000015.51999994.06666315
       5000016.51999994.06666315       5000017.51999994.06666315
       5000018.51999994.06666315       5000019.51999994.06666315
       5000020.51999994.06666315       5000021.51999994.06666315
       5000022.51999994.06666315       5000023.51999994.06666315
       5000024.51999994.06666315       5000025.51999994.06666315
       5000026.51999994.06666315       5000027.51999994.06666315
       5000028.51999994.06666315       5000029.51999994.06666315
       5000030.51999994.06666315       5000031.51999994.06666315
       5000032.51999994.06666315       5000033.51999994.06666315
       5000034.51999994.06666315       5000035.51999994.06666315
       5000036.51999994.06666315       5000037.51999994.06666315
       5000038.51999994.06666315       5000039.51999994.06666315
       5000040.51999994.06666315       5000041.51999994.06666315
       5000042.51999994.06666315       5000043.51999994.06666315
       5000044.51999994.06666315       5000045.51999994.06666315
       5000046.51999994.06666315       5000047.51999994.06666315
       5000048.51999994.06666315       5000049.51999994.06666315
       5000050.51999994.06666315       5000051.51999994.06666315
       5000052.51999994.06666315       5000053.51999994.06666315
       5000054.51999994.06666315       5000055.51999994.06666315
       5000056.51999994.06666315       5000057.51999994.06666315
       5000058.51999994.06666315       5000059.51999994.06666315
       5000060.51999994.06666315       5000061.51999994.06666315
       5000062.51999994.06666315       5000063.51999994.06666315
       5000064.51999994.06666315       5000065.51999994.06666315
       5000066.51999994.06666315       5000067.51999994.06666315
       5000068.51999994.06666315       5000069.51999994.06666315
       5000070.51999994.06666315       5000071.51999994.06666315
       5000072.51999994.06666315       5000073.51999994.06666315
       5000074.51999994.06666315       5000075.51999994.06666315
       5000076.51999994.06666315       5000077.51999994.06666315
       5000078.51999994.06666315       5000079.51999994.06666315
       5000080.51999994.06666315       5000081.51999994.06666315
       5000082.51999994.06666315       5000083.51999994.06666315
       5000084.51999994.06666315       5000085.51999994.06666315
       5000086.51999994.06666315       5000087.51999994.06666315
       5000088.51999994.06666315       5000089.51999994.06666315
       5000090.51999994.06666315       5000091.51999994.06666315
       5000092.51999994.06666315       5000093.51999994.06666315
       5000094.51999994.06666315       5000095.51999994.06666315
       5000096.51999994.06666315       5000097.51999994.06666315
       5000098.51999994.06666315       5000099.51999994.06666315
       5000000.5        2000003.       5000001.5        2000003.
       5000002.5        2000003.       5000003.5        2000003.
       5000004.5        2000003.       5000005.5        2000003.
       5000006.5        2000003.       5000007.5        2000003.
       5000008.5        2000003.       5000009.5        2000003.
       5000010.5        2000003.       5000011.5        2000003.
       5000012.5        2000003.       5000013.5        2000003.
       5000014.5        2000003.       5000015.5        2000003.
       5000016.5        2000003.       5000017.5        2000003.
       5000018.5        2000003.       5000019.5        2000003.
       5000020.5        2000003.       5000021.5        2000003.
       5000022.5        2000003.       5000023.5        2000003.
       5000024.5        2000003.       5000025.5        2000003.
       5000026.5        2000003.       5000027.5        2000003.
       5000028.5        2000003.       5000029.5        2000003.
       5000030.5        2000003.       5000031.5        2000003.
       5000032.5        2000003.       5000033.5        2000003.
       5000034.5        2000003.       5000035.5        2000003.
       5000036.5        2000003.       5000037.5        2000003.
       5000038.5        2000003.       5000039.5        2000003.
       5000040.5        2000003.       5000041.5        2000003.
       5000042.5        2000003.       5000043.5        2000003.
       5000044.5        2000003.       5000045.5        2000003.
       5000046.5        2000003.       5000047.5        2000003.
       5000048.5        2000003.       5000049.5        2000003.
       5000050.5        2000003.       5000051.5        2000003.
       5000052.5        2000003.       5000053.5        2000003.
       5000054.5        2000003.       5000055.5        2000003.
       5000056.5        2000003.       5000057.5        2000003.
       5000058.5        2000003.       5000059.5        2000003.
       5000060.5        2000003.       5000061.5        2000003.
       5000062.5        2000003.       5000063.5        2000003.
       5000064.5        2000003.       5000065.5        2000003.
       5000066.5        2000003.       5000067.5        2000003.
       5000068.5        2000003.       5000069.5        2000003.
       5000070.5        2000003.       5000071.5        2000003.
       5000072.5        2000003.       5000073.5        2000003.
       5000074.5        2000003.       5000075.5        2000003.
       5000076.5        2000003.       5000077.5        2000003.
       5000078.5        2000003.       5000079.5        2000003.
       5000080.5        2000003.       5000081.5        2000003.
       5000082.5        2000003.       5000083.5        2000003.
       5000084.5        2000003.       5000085.5        2000003.
       5000086.5        2000003.       5000087.5        2000003.
       5000088.5        2000003.       5000089.5        2000003.
       5000090.5        2000003.       5000091.5        2000003.
       5000092.5        2000003.       5000093.5        2000003.
       5000094.5        2000003.       5000095.5        2000003.
       5000096.5        2000003.       5000097.5        2000003.
       5000098.5        2000003.       5000099.5        2000003.
       5000000.5        2000002.       5000001.5        2000002.
       5000002.5        2000002.       5000003.5        2000002.
       5000004.5        2000002.       5000005.5        2000002.
       5000006.5        2000002.       5000007.5        2000002.
       5000008.5        2000002.       5000009.5        2000002.
       5000010.5        2000002.       5000011.5        2000002.
       5000012.5        2000002.       5000013.5        2000002.
       5000014.5        2000002.       5000015.5        2000002.
       5000016.5        2000002.       5000017.5        2000002.
       5000018.5        2000002.       5000019.5        2000002.
       5000020.5        2000002.       5000021.5        2000002.
       5000022.5        2000002.       5000023.5        2000002.
       5000024.5        2000002.       5000025.5        2000002.
       5000026.5        2000002.       5000027.5        2000002.
       5000028.5        2000002.       5000029.5        2000002.
       5000030.5        2000002.       5000031.5        2000002.
       5000032.5        2000002.       5000033.5        2000002.
       5000034.5        2000002.       5000035.5        2000002.
       5000036.5        2000002.       5000037.5        2000002.
       5000038.5        2000002.       5000039.5        2000002.
       5000040.5        2000002.       5000041.5        2000002.
       5000042.5        2000002.       5000043.5        2000002.
       5000044.5        2000002.       5000045.5        2000002.
       5000046.5        2000002.       5000047.5        2000002.
       5000048.5        2000002.       5000049.5        2000002.
       5000050.5        2000002.       5000051.5        2000002.
       5000052.5        2000002.       5000053.5        2000002.
       5000054.5        2000002.       5000055.5        2000002.
       5000056.5        2000002.       5000057.5        2000002.
       5000058.5        2000002.       5000059.5        2000002.
       5000060.5        2000002.       5000061.5        2000002.
       5000062.5        2000002.       5000063.5        2000002.
       5000064.5        2000002.       5000065.5        2000002.
       5000066.5        2000002.       5000067.5        2000002.
       5000068.5        2000002.       5000069.5        2000002.
       5000070.5        2000002.       5000071.5        2000002.
       5000072.5        2000002.       5000073.5        2000002.
       5000074.5        2000002.       5000075.5        2000002.
       5000076.5        2000002.       5000077.5        2000002.
       5000078.5        2000002.       5000079.5        2000002.
       5000080.5        2000002.       5000081.5        2000002.
       5000082.5        2000002.       5000083.5        2000002.
       5000084.5        2000002.       5000085.5        2000002.
       5000086.5        2000002.       5000087.5        2000002.
       5000088.5        2000002.       5000089.5        2000002.
       5000090.5        2000002.       5000091.5        2000002.
       5000092.5        2000002.       5000093.5        2000002.
       5000094.5        2000002.       5000095.5        2000002.
       5000096.5        2000002.       5000097.5        2000002.
       5000098.5        2000002.       5000099.5        2000002.
       5000000.52000005.93333685       5000001.52000005.93333685
       5000002.52000005.93333685       5000003.52000005.93333685
       5000004.52000005.93333685       5000005.52000005.93333685
       5000006.52000005.93333685       5000007.52000005.93333685
       5000008.52000005.93333685       5000009.52000005.93333685
       5000010.52000005.93333685       5000011.52000005.93333685
       5000012.52000005.93333685       5000013.52000005.93333685
       5000014.52000005.93333685       5000015.52000005.93333685
       5000016.52000005.93333685       5000017.52000005.93333685
       5000018.52000005.93333685       5000019.52000005.93333685
       5000020.52000005.93333685       5000021.52000005.93333685
       5000022.52000005.93333685       5000023.52000005.93333685
       5000024.52000005.93333685       5000025.52000005.93333685
       5000026.52000005.93333685       5000027.52000005.93333685
       5000028.52000005.93333685       5000029.52000005.93333685
       5000030.52000005.93333685       5000031.52000005.93333685
       5000032.52000005.93333685       5000033.52000005.93333685
       5000034.52000005.93333685       5000035.52000005.93333685
       5000036.52000005.93333685       5000037.52000005.93333685
       5000038.52000005.93333685       5000039.52000005.93333685
       5000040.52000005.93333685       5000041.52000005.93333685
       5000042.52000005.93333685       5000043.52000005.93333685
       5000044.52000005.93333685       5000045.52000005.93333685
       5000046.52000005.93333685       5000047.52000005.93333685
       5000048.52000005.93333685       5000049.52000005.93333685
       5000050.52000005.93333685       5000051.52000005.93333685
       5000052.52000005.93333685       5000053.52000005.93333685
       5000054.52000005.93333685       5000055.52000005.93333685
       5000056.52000005.93333685       5000057.52000005.93333685
       5000058.52000005.93333685       5000059.52000005.93333685
       5000060.52000005.93333685       5000061.52000005.93333685
       5000062.52000005.93333685       5000063.52000005.93333685
       5000064.52000005.93333685       5000065.52000005.93333685
       5000066.52000005.93333685       5000067.52000005.93333685
       5000068.52000005.93333685       5000069.52000005.93333685
       5000070.52000005.93333685       5000071.52000005.93333685
       5000072.52000005.93333685       5000073.52000005.93333685
       5000074.52000005.93333685       5000075.52000005.93333685
       5000076.52000005.93333685       5000077.52000005.93333685
       5000078.52000005.93333685       5000079.52000005.93333685
       5000080.52000005.93333685       5000081.52000005.93333685
       5000082.52000005.93333685       5000083.52000005.93333685
       5000084.52000005.93333685       5000085.52000005.93333685
       5000086.52000005.93333685       5000087.52000005.93333685
       5000088.52000005.93333685       5000089.52000005.93333685
       5000090.52000005.93333685       5000091.52000005.93333685
       5000092.52000005.93333685       5000093.52000005.93333685
       5000094.52000005.93333685       5000095.52000005.93333685
       5000096.52000005.93333685       5000097.52000005.93333685
       5000098.52000005.93333685       5000099.52000005.93333685
       5000000.52000004.93333685       5000001.52000004.93333685
       5000002.52000004.93333685       5000003.52000004.93333685
       5000004.52000004.93333685       5000005.52000004.93333685
       5000006.52000004.93333685       5000007.52000004.93333685