Geom Title=Geometry2D
Program Version=6.70
Viewing Rectangle= 4999994.9299224 , 5000105.13775405 , 2000008.96500581 , 1999991.03499419 

Storage Area=Perimeter 1     ,,
Storage Area Surface Line= 5 
        5000000.2000008.15000528                
        5000100.2000008.15000528                
        5000100.1999991.84999472                
        5000000.1999991.84999472                
        5000000.2000008.15000528                
Storage Area Type= 1 
Storage Area Area=
Storage Area Min Elev=
Storage Area Is2D=-1
Storage Area Point Generation Data=,,1,1
Storage Area 2D Points= 6100 
       5000000.52000007.65000528       5000001.52000007.65000528
       5000002.52000007.65000528       5000003.52000007.65000528
       5000004.52000007.65000528       5000005.52000007.65000528
       5000006.52000007.65000528       5000007.52000007.65000528
       5000008.52000007.65000528       5000009.52000007.65000528
       5000010.52000007.65000528       5000011.52000007.65000528
       5000012.52000007.65000528       5000013.52000007.65000528
       5000014.52000007.65000528       5000015.52000007.65000528
       5000016.52000007.65000528       5000017.52000007.65000528
       5000018.52000007.65000528       5000019.52000007.65000528
       5000020.52000007.65000528       5000021.52000007.65000528
       5000022.52000007.65000528       5000023.52000007.65000528
       5000024.52000007.65000528       5000025.52000007.65000528
       5000026.52000007.65000528       5000027.52000007.65000528
       5000028.52000007.65000528       5000029.52000007.65000528
       5000030.52000007.65000528       5000031.52000007.65000528
       5000032.52000007.65000528       5000033.52000007.65000528
       5000034.52000007.65000528       5000035.52000007.65000528
       5000036.52000007.65000528       5000037.52000007.65000528
       5000038.52000007.65000528       5000039.52000007.65000528
       5000040.52000007.65000528       5000041.52000007.65000528
       5000042.52000007.65000528       5000043.52000007.65000528
       5000044.52000007.65000528       5000045.52000007.65000528
       5000046.52000007.65000528       5000047.52000007.65000528
       5000048.52000007.65000528       5000049.52000007.65000528
       5000050.52000007.65000528       5000051.52000007.65000528
       5000052.52000007.65000528       5000053.52000007.65000528
       5000054.52000007.65000528       5000055.52000007.65000528
       5000056.52000007.65000528       5000057.52000007.65000528
       5000058.52000007.65000528       5000059.52000007.65000528
       5000060.52000007.65000528       5000061.52000007.65000528
       5000062.52000007.65000528       5000063.52000007.65000528
       5000064.52000007.65000528       5000065.52000007.65000528
       5000066.52000007.65000528       5000067.52000007.65000528
       5000068.52000007.65000528       5000069.52000007.65000528
       5000070.52000007.65000528       5000071.52000007.65000528
       5000072.52000007.65000528       5000073.52000007.65000528
       5000074.52000007.65000528       5000075.52000007.65000528
       5000076.52000007.65000528       5000077.52000007.65000528
       5000078.52000007.65000528       5000079.52000007.65000528
       5000080.52000007.65000528       5000081.52000007.65000528
       5000082.52000007.65000528       5000083.52000007.65000528
       5000084.52000007.65000528       5000085.52000007.65000528
       5000086.52000007.65000528       5000087.52000007.65000528
       5000088.52000007.65000528       5000089.52000007.65000528
       5000090.52000007.65000528       5000091.52000007.65000528
       5000092.52000007.65000528       5000093.52000007.65000528
       5000094.52000007.65000528       5000095.52000007.65000528
       5000096.52000007.65000528       5000097.52000007.65000528
       5000098.52000007.65000528       5000099.52000007.65000528
       5000000.52000006.65000528       5000001.52000006.65000528
       5000002.52000006.65000528       5000003.52000006.65000528
       5000004.52000006.65000528       5000005.52000006.65000528
       5000006.52000006.65000528       5000007.52000006.65000528
       5000008.52000006.65000528       5000009.52000006.65000528
       5000010.52000006.65000528       5000011.52000006.65000528
       5000012.52000006.65000528       5000013.52000006.65000528
       5000014.52000006.65000528       5000015.52000006.65000528
       5000016.52000006.65000528       5000017.52000006.65000528
       5000018.52000006.65000528       5000019.52000006.65000528
       5000020.52000006.65000528       5000021.52000006.65000528
       5000022.52000006.65000528       5000023.52000006.65000528
       5000024.52000006.65000528       5000025.52000006.65000528
       5000026.52000006.65000528       5000027.52000006.65000528
       5000028.52000006.65000528       5000029.52000006.65000528
       5000030.52000006.65000528       5000031.52000006.65000528
       5000032.52000006.65000528       5000033.52000006.65000528
       5000034.52000006.65000528       5000035.52000006.65000528
       5000036.52000006.65000528       5000037.52000006.65000528
       5000038.52000006.65000528       5000039.52000006.65000528
       5000040.52000006.65000528       5000041.52000006.65000528
       5000042.52000006.65000528       5000043.52000006.65000528
       5000044.52000006.65000528       5000045.52000006.65000528
       5000046.52000006.65000528       5000047.52000006.65000528
       5000048.52000006.65000528       5000049.52000006.65000528
       5000050.52000006.65000528       5000051.52000006.65000528
       5000052.52000006.65000528       5000053.52000006.65000528
       5000054.52000006.65000528       5000055.52000006.65000528
       5000056.52000006.65000528       5000057.52000006.65000528
       5000058.52000006.65000528       5000059.52000006.65000528
       5000060.52000006.65000528       5000061.52000006.65000528
       5000062.52000006.65000528       5000063.52000006.65000528
       5000064.52000006.65000528       5000065.52000006.65000528
       5000066.52000006.65000528       5000067.52000006.65000528
       5000068.52000006.65000528       5000069.52000006.65000528
       5000070.52000006.65000528       5000071.52000006.65000528
       5000072.52000006.65000528       5000073.52000006.65000528
       5000074.52000006.65000528       5000075.52000006.65000528
       5000076.52000006.65000528       5000077.52000006.65000528
       5000078.52000006.65000528       5000079.52000006.65000528
       5000080.52000006.65000528       5000081.52000006.65000528
       5000082.52000006.65000528       5000083.52000006.65000528
       5000084.52000006.65000528       5000085.52000006.65000528
       5000086.52000006.65000528       5000087.52000006.65000528
       5000088.52000006.65000528       5000089.52000006.65000528
       5000090.52000006.65000528       5000091.52000006.65000528
       5000092.52000006.65000528       5000093.52000006.65000528
       5000094.52000006.65000528       5000095.52000006.65000528
       5000096.52000006.65000528       5000097.52000006.65000528
       5000098.52000006.65000528       5000099.52000006.65000528
       5000000.52000003.65000528       5000001.52000003.65000528
       5000002.52000003.65000528       5000003.52000003.65000528
       5000004.52000003.65000528       5000005.52000003.65000528
       5000006.52000003.65000528       5000007.52000003.65000528
       5000008.52000003.65000528       5000009.52000003.65000528
       5000010.52000003.65000528       5000011.52000003.65000528
       5000012.52000003.65000528       5000013.52000003.65000528
       5000014.52000003.65000528       5000015.52000003.65000528
       5000016.52000003.65000528       5000017.52000003.65000528
       5000018.52000003.65000528       5000019.52000003.65000528
       5000020.52000003.65000528       5000021.52000003.65000528
       5000022.52000003.65000528       5000023.52000003.65000528
       5000024.52000003.65000528       5000025.52000003.65000528
       5000026.52000003.65000528       5000027.52000003.65000528
       5000028.52000003.65000528       5000029.52000003.65000528
       5000030.52000003.65000528       5000031.52000003.65000528
       5000032.52000003.65000528       5000033.52000003.65000528
       5000034.52000003.65000528       5000035.52000003.65000528
       5000036.52000003.65000528       5000037.52000003.65000528
       5000038.52000003.65000528       5000039.52000003.65000528
       5000040.52000003.65000528       5000041.52000003.65000528
       5000042.52000003.65000528       5000043.52000003.65000528
       5000044.52000003.65000528       5000045.52000003.65000528
       5000046.52000003.65000528       5000047.52000003.65000528
       5000048.52000003.65000528       5000049.52000003.65000528
       5000050.52000003.65000528       5000051.52000003.65000528
       5000052.52000003.65000528       5000053.52000003.65000528
       5000054.52000003.65000528       5000055.52000003.65000528
       5000056.52000003.65000528       5000057.52000003.65000528
       5000058.52000003.65000528       5000059.52000003.65000528
       5000060.52000003.65000528       5000061.52000003.65000528
       5000062.52000003.65000528       5000063.52000003.65000528
       5000064.52000003.65000528       5000065.52000003.65000528
       5000066.52000003.65000528       5000067.52000003.65000528
       5000068.52000003.65000528       5000069.52000003.65000528
       5000070.52000003.65000528       5000071.52000003.65000528
       5000072.52000003.65000528       5000073.52000003.65000528
       5000074.52000003.65000528       5000075.52000003.65000528
       5000076.52000003.65000528       5000077.52000003.65000528
       5000078.52000003.65000528       5000079.52000003.65000528
       5000080.52000003.65000528       5000081.52000003.65000528
       5000082.52000003.65000528       5000083.52000003.65000528
       5000084.52000003.65000528       5000085.52000003.65000528
       5000086.52000003.65000528       5000087.52000003.65000528
       5000088.52000003.65000528       5000089.52000003.65000528
       5000090.52000003.65000528       5000091.52000003.65000528
       5000092.52000003.65000528       5000093.52000003.65000528
       5000094.52000003.65000528       5000095.52000003.65000528
       5000096.52000003.65000528       5000097.52000003.65000528
       5000098.52000003.65000528       5000099.52000003.65000528
       5000000.52000002.65000528       5000001.52000002.65000528
       5000002.52000002.65000528       5000003.52000002.65000528
       5000004.52000002.65000528       5000005.52000002.65000528
       5000006.52000002.65000528       5000007.52000002.65000528
       5000008.52000002.65000528       5000009.52000002.65000528
       5000010.52000002.65000528       5000011.52000002.65000528
       5000012.52000002.65000528       5000013.52000002.65000528
       5000014.52000002.65000528       5000015.52000002.65000528
       5000016.52000002.65000528       5000017.52000002.65000528
       5000018.52000002.65000528       5000019.52000002.65000528
       5000020.52000002.65000528       5000021.52000002.65000528
       5000022.52000002.65000528       5000023.52000002.65000528
       5000024.52000002.65000528       5000025.52000002.65000528
       5000026.52000002.65000528       5000027.52000002.65000528
       5000028.52000002.65000528       5000029.52000002.65000528
       5000030.52000002.65000528       5000031.52000002.65000528
       5000032.52000002.65000528       5000033.52000002.65000528
       5000034.52000002.65000528       5000035.52000002.65000528
       5000036.52000002.65000528       5000037.52000002.65000528
       5000038.52000002.65000528       5000039.52000002.65000528
       5000040.52000002.65000528       5000041.52000002.65000528
       5000042.52000002.65000528       5000043.52000002.65000528
       5000044.52000002.65000528       5000045.52000002.65000528
       5000046.52000002.65000528       5000047.52000002.65000528
       5000048.52000002.65000528       5000049.52000002.65000528
       5000050.52000002.65000528       5000051.52000002.65000528
       5000052.52000002.65000528       5000053.52000002.65000528
       5000054.52000002.65000528       5000055.52000002.65000528
       5000056.52000002.65000528       5000057.52000002.65000528
       5000058.52000002.65000528       5000059.52000002.65000528
       5000060.52000002.65000528       5000061.52000002.65000528
       5000062.52000002.65000528       5000063.52000002.65000528
       5000064.52000002.65000528       5000065.52000002.65000528
       5000066.52000002.65000528       5000067.52000002.65000528
       5000068.52000002.65000528       5000069.52000002.65000528
       5000070.52000002.65000528       5000071.52000002.65000528
       5000072.52000002.65000528       5000073.52000002.65000528
       5000074.52000002.65000528       5000075.52000002.65000528
       5000076.52000002.65000528       5000077.52000002.65000528
       5000078.52000002.65000528       5000079.52000002.65000528
       5000080.52000002.65000528       5000081.52000002.65000528
       5000082.52000002.65000528       5000083.52000002.65000528
       5000084.52000002.65000528       5000085.52000002.65000528
       5000086.52000002.65000528       5000087.52000002.65000528
       5000088.52000002.65000528       5000089.52000002.65000528
       5000090.52000002.65000528       5000091.52000002.65000528
       5000092.52000002.65000528       5000093.52000002.65000528
       5000094.52000002.65000528       5000095.52000002.65000528
       5000096.52000002.65000528       5000097.52000002.65000528
       5000098.52000002.65000528       5000099.52000002.65000528
       5000000.52000001.65000528       5000001.52000001.65000528
       5000002.52000001.65000528       5000003.52000001.65000528
       5000004.52000001.65000528       5000005.52000001.65000528
       5000006.52000001.65000528       5000007.52000001.65000528
       5000008.52000001.65000528       5000009.52000001.65000528
       5000010.52000001.65000528       5000011.52000001.65000528
       5000012.52000001.65000528       5000013.52000001.65000528
       5000014.52000001.65000528       5000015.52000001.65000528
       5000016.52000001.65000528       5000017.52000001.65000528
       5000018.52000001.65000528       5000019.52000001.65000528
       5000020.52000001.65000528       5000021.52000001.65000528
       5000022.52000001.65000528       5000023.52000001.65000528
       5000024.52000001.65000528       5000025.52000001.65000528
       5000026.52000001.65000528       5000027.52000001.65000528
       5000028.52000001.65000528       5000029.52000001.65000528
       5000030.52000001.65000528       5000031.52000001.65000528
       5000032.52000001.65000528       5000033.52000001.65000528
       5000034.52000001.65000528       5000035.52000001.65000528
       5000036.52000001.65000528       5000037.52000001.65000528
       5000038.52000001.65000528       5000039.52000001.65000528
       5000040.52000001.65000528       5000041.52000001.65000528
       5000042.52000001.65000528       5000043.52000001.65000528
       5000044.52000001.65000528       5000045.52000001.65000528
       5000046.52000001.65000528       5000047.52000001.65000528
       5000048.52000001.65000528       5000049.52000001.65000528
       5000050.52000001.65000528       5000051.52000001.65000528
       5000052.52000001.65000528       5000053.52000001.65000528
       5000054.52000001.65000528       5000055.52000001.65000528
       5000056.52000001.65000528       5000057.52000001.65000528
       5000058.52000001.65000528       5000059.52000001.65000528
       5000060.52000001.65000528       5000061.52000001.65000528
       5000062.52000001.65000528       5000063.52000001.65000528
       5000064.52000001.65000528       5000065.52000001.65000528
       5000066.52000001.65000528       5000067.52000001.65000528
       5000068.52000001.65000528       5000069.52000001.65000528
       5000070.52000001.65000528       5000071.52000001.65000528
       5000072.52000001.65000528       5000073.52000001.65000528
       5000074.52000001.65000528       5000075.52000001.65000528
       5000076.52000001.65000528       5000077.52000001.65000528
       5000078.52000001.65000528       5000079.52000001.65000528
       5000080.52000001.65000528       5000081.52000001.65000528
       5000082.52000001.65000528       5000083.52000001.65000528
       5000084.52000001.65000528       5000085.52000001.65000528
       5000086.52000001.65000528       5000087.52000001.65000528
       5000088.52000001.65000528       5000089.52000001.65000528
       5000090.52000001.65000528       5000091.52000001.65000528
       5000092.52000001.65000528       5000093.52000001.65000528
       5000094.52000001.65000528       5000095.52000001.65000528
       5000096.52000001.65000528       5000097.52000001.65000528
       5000098.52000001.65000528       5000099.52000001.65000528
       5000000.52000000.65000528       5000001.52000000.65000528
       5000002.52000000.65000528       5000003.52000000.65000528
       5000004.52000000.65000528       5000005.52000000.65000528
       5000006.52000000.65000528       5000007.52000000.65000528
       5000008.52000000.65000528       5000009.52000000.65000528
       5000010.52000000.65000528       5000011.52000000.65000528
       5000012.52000000.65000528       5000013.52000000.65000528
       5000014.52000000.65000528       5000015.52000000.65000528
       5000016.52000000.65000528       5000017.52000000.65000528
       5000018.52000000.65000528       5000019.52000000.65000528
       5000020.52000000.65000528       5000021.52000000.65000528
       5000022.52000000.65000528       5000023.52000000.65000528
       5000024.52000000.65000528       5000025.52000000.65000528
       5000026.52000000.65000528       5000027.52000000.65000528
       5000028.52000000.65000528       5000029.52000000.65000528
       5000030.52000000.65000528       5000031.52000000.65000528
       5000032.52000000.65000528       5000033.52000000.65000528
       5000034.52000000.65000528       5000035.52000000.65000528
       5000036.52000000.65000528       5000037.52000000.65000528
       5000038.52000000.65000528       5000039.52000000.65000528
       5000040.52000000.65000528       5000041.52000000.65000528
       5000042.52000000.65000528       5000043.52000000.65000528
       5000044.52000000.65000528       5000045.52000000.65000528
       5000046.52000000.65000528       5000047.52000000.65000528
       5000048.52000000.65000528       5000049.52000000.65000528
       5000050.52000000.65000528       5000051.52000000.65000528
       5000052.52000000.65000528       5000053.52000000.65000528
       5000054.52000000.65000528       5000055.52000000.65000528
       5000056.52000000.65000528       5000057.52000000.65000528
       5000058.52000000.65000528       5000059.52000000.65000528
       5000060.52000000.65000528       5000061.52000000.65000528
       5000062.52000000.65000528       5000063.52000000.65000528
       5000064.52000000.65000528       5000065.52000000.65000528
       5000066.52000000.65000528       5000067.52000000.65000528
       5000068.52000000.65000528       5000069.52000000.65000528
       5000070.52000000.65000528       5000071.52000000.65000528
       5000072.52000000.65000528       5000073.52000000.65000528
       5000074.52000000.65000528       5000075.52000000.65000528
       5000076.52000000.65000528       5000077.52000000.65000528
       5000078.52000000.65000528       5000079.52000000.65000528
       5000080.52000000.65000528       5000081.52000000.65000528
       5000082.52000000.65000528       5000083.52000000.65000528
       5000084.52000000.65000528       5000085.52000000.65000528
       5000086.52000000.65000528       5000087.52000000.65000528
       5000088.52000000.65000528       5000089.52000000.65000528
       5000090.52000000.65000528       5000091.52000000.65000528
       5000092.52000000.65000528       5000093.52000000.65000528
       5000094.52000000.65000528       5000095.52000000.65000528
       5000096.52000000.65000528       5000097.52000000.65000528
       5000098.52000000.65000528       5000099.52000000.65000528
       5000000.51999999.65000528       5000001.51999999.65000528
       5000002.51999999.65000528       5000003.51999999.65000528
       5000004.51999999.65000528       5000005.51999999.65000528
       5000006.51999999.65000528       5000007.51999999.65000528
       5000008.51999999.65000528       5000009.51999999.65000528
       5000010.51999999.65000528       5000011.51999999.65000528
       5000012.51999999.65000528       5000013.51999999.65000528
       5000014.51999999.65000528       5000015.51999999.65000528
       5000016.51999999.65000528       5000017.51999999.65000528
       5000018.51999999.65000528       5000019.51999999.65000528
       5000020.51999999.65000528       5000021.51999999.65000528
       5000022.51999999.65000528       5000023.51999999.65000528
       5000024.51999999.65000528       5000025.51999999.65000528
       5000026.51999999.65000528       5000027.51999999.65000528
       5000028.51999999.65000528       5000029.51999999.65000528
       5000030.51999999.65000528       5000031.51999999.65000528
       5000032.51999999.65000528       5000033.51999999.65000528
       5000034.51999999.65000528       5000035.51999999.65000528
       5000036.51999999.65000528       5000037.51999999.65000528
       5000038.51999999.65000528       5000039.51999999.65000528
       5000040.51999999.65000528       5000041.51999999.65000528
       5000042.51999999.65000528       5000043.51999999.65000528
       5000044.51999999.65000528       5000045.51999999.65000528
       5000046.51999999.65000528       5000047.51999999.65000528
       5000048.51999999.65000528       5000049.51999999.65000528
       5000050.51999999.65000528       5000051.51999999.65000528
       5000052.51999999.65000528       5000053.51999999.65000528
       5000054.51999999.65000528       5000055.51999999.65000528
       5000056.51999999.65000528       5000057.51999999.65000528
       5000058.51999999.65000528       5000059.51999999.65000528
       5000060.51999999.65000528       5000061.51999999.65000528
       5000062.51999999.65000528       5000063.51999999.65000528
       5000064.51999999.65000528       5000065.51999999.65000528
       5000066.51999999.65000528       5000067.51999999.65000528
       5000068.51999999.65000528       5000069.51999999.65000528
       5000070.51999999.65000528       5000071.51999999.65000528
       5000072.51999999.65000528       5000073.51999999.65000528
       5000074.51999999.65000528       5000075.51999999.65000528
       5000076.51999999.65000528       5000077.51999999.65000528
       5000078.51999999.65000528       5000079.51999999.65000528
       5000080.51999999.65000528       5000081.51999999.65000528
       5000082.51999999.65000528       5000083.51999999.65000528
       5000084.51999999.65000528       5000085.51999999.65000528
       5000086.51999999.65000528       5000087.51999999.65000528
       5000088.51999999.65000528       5000089.51999999.65000528
       5000090.51999999.65000528       5000091.51999999.65000528
       5000092.51999999.65000528       5000093.51999999.65000528
       5000094.51999999.65000528       5000095.51999999.65000528
       5000096.51999999.65000528       5000097.51999999.65000528
       5000098.51999999.65000528       5000099.51999999.65000528
       5000000.51999998.65000528       5000001.51999998.65000528
       5000002.51999998.65000528       5000003.51999998.65000528
       5000004.51999998.65000528       5000005.51999998.65000528
       5000006.51999998.65000528       5000007.51999998.65000528
       5000008.51999998.65000528       5000009.51999998.65000528
       5000010.51999998.65000528       5000011.51999998.65000528
       5000012.51999998.65000528       5000013.51999998.65000528
       5000014.51999998.65000528       5000015.51999998.65000528
       5000016.51999998.65000528       5000017.51999998.65000528
       5000018.51999998.65000528       5000019.51999998.65000528
       5000020.51999998.65000528       5000021.51999998.65000528
       5000022.51999998.65000528       5000023.51999998.65000528
       5000024.51999998.65000528       5000025.51999998.65000528
       5000026.51999998.65000528       5000027.51999998.65000528
       5000028.51999998.65000528       5000029.51999998.65000528
       5000030.51999998.65000528       5000031.51999998.65000528
       5000032.51999998.65000528       5000033.51999998.65000528
       5000034.51999998.65000528       5000035.51999998.65000528
       5000036.51999998.65000528       5000037.51999998.65000528
       5000038.51999998.65000528       5000039.51999998.65000528
       5000040.51999998.65000528       5000041.51999998.65000528
       5000042.51999998.65000528       5000043.51999998.65000528
       5000044.51999998.65000528       5000045.51999998.65000528
       5000046.51999998.65000528       5000047.51999998.65000528
       5000048.51999998.65000528       5000049.51999998.65000528
       5000050.51999998.65000528       5000051.51999998.65000528
       5000052.51999998.65000528       5000053.51999998.65000528
       5000054.51999998.65000528       5000055.51999998.65000528
       5000056.51999998.65000528       5000057.51999998.65000528
       5000058.51999998.65000528       5000059.51999998.65000528
       5000060.51999998.65000528       5000061.51999998.65000528
       5000062.51999998.65000528       5000063.51999998.65000528
       5000064.51999998.65000528       5000065.51999998.65000528
       5000066.51999998.65000528       5000067.51999998.65000528
       5000068.51999998.65000528       5000069.51999998.65000528
       5000070.51999998.65000528       5000071.51999998.65000528
       5000072.51999998.65000528       5000073.51999998.65000528
       5000074.51999998.65000528       5000075.51999998.65000528
       5000076.51999998.65000528       5000077.51999998.65000528
       5000078.51999998.65000528       5000079.51999998.65000528
       5000080.51999998.65000528       5000081.51999998.65000528
       5000082.51999998.65000528       5000083.51999998.65000528
       5000084.51999998.65000528       5000085.51999998.65000528
       5000086.51999998.65000528       5000087.51999998.65000528
       5000088.51999998.65000528       5000089.51999998.65000528
       5000090.51999998.65000528       5000091.51999998.65000528
       5000092.51999998.65000528       5000093.51999998.65000528
       5000094.51999998.65000528       5000095.51999998.65000528
       5000096.51999998.65000528       5000097.51999998.65000528
       5000098.51999998.65000528       5000099.51999998.65000528
       5000000.51999997.65000528       5000001.51999997.65000528
       5000002.51999997.65000528       5000003.51999997.65000528
       5000004.51999997.65000528       5000005.51999997.65000528
       5000006.51999997.65000528       5000007.51999997.65000528
       5000008.51999997.65000528       5000009.51999997.65000528
       5000010.51999997.65000528       5000011.51999997.65000528
       5000012.51999997.65000528       5000013.51999997.65000528
       5000014.51999997.65000528       5000015.51999997.65000528
       5000016.51999997.65000528       5000017.51999997.65000528
       5000018.51999997.65000528       5000019.51999997.65000528
       5000020.51999997.65000528       5000021.51999997.65000528
       5000022.51999997.65000528       5000023.51999997.65000528
       5000024.51999997.65000528       5000025.51999997.65000528
       5000026.51999997.65000528       5000027.51999997.65000528
       5000028.51999997.65000528       5000029.51999997.65000528
       5000030.51999997.65000528       5000031.51999997.65000528
       5000032.51999997.65000528       5000033.51999997.65000528
       5000034.51999997.65000528       5000035.51999997.65000528
       5000036.51999997.65000528       5000037.51999997.65000528
       5000038.51999997.65000528       5000039.51999997.65000528
       5000040.51999997.65000528       5000041.51999997.65000528
       5000042.51999997.65000528       5000043.51999997.65000528
       5000044.51999997.65000528       5000045.51999997.65000528
       5000046.51999997.65000528       5000047.51999997.65000528
       5000048.51999997.65000528       5000049.51999997.65000528
       5000050.51999997.65000528       5000051.51999997.65000528
       5000052.51999997.65000528       5000053.51999997.65000528
       5000054.51999997.65000528       5000055.51999997.65000528
       5000056.51999997.65000528       5000057.51999997.65000528
       5000058.51999997.65000528       5000059.51999997.65000528
       5000060.51999997.65000528       5000061.51999997.65000528
       5000062.51999997.65000528       5000063.51999997.65000528
       5000064.51999997.65000528       5000065.51999997.65000528
       5000066.51999997.65000528       5000067.51999997.65000528
       5000068.51999997.65000528       5000069.51999997.65000528
       5000070.51999997.65000528       5000071.51999997.65000528
       5000072.51999997.65000528       5000073.51999997.65000528
       5000074.51999997.65000528       5000075.51999997.65000528
       5000076.51999997.65000528       5000077.51999997.65000528
       5000078.51999997.65000528       5000079.51999997.65000528
       5000080.51999997.65000528       5000081.51999997.65000528
       5000082.51999997.65000528       5000083.51999997.65000528
       5000084.51999997.65000528       5000085.51999997.65000528
       5000086.51999997.65000528       5000087.51999997.65000528
       5000088.51999997.65000528       5000089.51999997.65000528
       5000090.51999997.65000528       5000091.51999997.65000528
       5000092.51999997.65000528       5000093.51999997.65000528
       5000094.51999997.65000528       5000095.51999997.65000528
       5000096.51999997.65000528       5000097.51999997.65000528
       5000098.51999997.65000528       5000099.51999997.65000528
       5000000.51999996.65000528       5000001.51999996.65000528
       5000002.51999996.65000528       5000003.51999996.65000528